2024_89_CemigReconfigurationCases/1_3_EstudoCasos/IIGD210/IIGD210Transformadores.dss
new transformer.1045137 Phases=1,Windings=3,Buses=[BMT100961107.2 BBT7295521.1.0 BBT7295521.0.2],Conns=[wye wye wye],kvs=[7.967 0.12 0.12],kvas=[5.000000000 5.000000000 5.000000000],Taps=[1,1.000000000,1.000000000],%loadloss=1.900000000,%noloadloss=0.600000000
new transformer.1109222 Phases=3,Windings=2,Buses=[BMT165779956.1.2.3 BBT25061087.1.2.3.0],Conns=[delta wye],kvs=[13.8 0.22],kvas=[75.000000000 75.000000000],Taps=[1,1.000000000],%loadloss=1.340000000,%noloadloss=0.340000000
new transformer.1214355 Phases=3,Windings=2,Buses=[BMT165779965.1.2.3 BBT46118879.1.2.3.0],Conns=[delta wye],kvs=[13.8 0.22],kvas=[75.000000000 75.000000000],Taps=[1,1.000000000],%loadloss=1.340000000,%noloadloss=0.340000000
new transformer.1214432 Phases=3,Windings=2,Buses=[BMT165779967.1.2.3 BBT46144002.1.2.3.0],Conns=[delta wye],kvs=[13.8 0.22],kvas=[75.000000000 75.000000000],Taps=[1,1.000000000],%loadloss=1.340000000,%noloadloss=0.340000000
new transformer.1214446 Phases=3,Windings=2,Buses=[BMT166637396.1.2.3 BBT46162328.1.2.3.0],Conns=[delta wye],kvs=[13.8 0.22],kvas=[75.000000000 75.000000000],Taps=[1,1.000000000],%loadloss=1.340000000,%noloadloss=0.340000000
new transformer.1340110 Phases=3,Windings=2,Buses=[BMT166051781.1.2.3 BBT108181943.1.2.3.0],Conns=[delta wye],kvs=[13.8 0.22],kvas=[45.000000000 45.000000000],Taps=[1,1.000000000],%loadloss=1.522000000,%noloadloss=0.377777000
new transformer.1341671 Phases=3,Windings=2,Buses=[BMT159188321.1.2.3 BBT109224901.1.2.3.0],Conns=[delta wye],kvs=[13.8 0.22],kvas=[45.000000000 45.000000000],Taps=[1,1.000000000],%loadloss=1.522000000,%noloadloss=0.377777000
new transformer.1342119 Phases=3,Windings=2,Buses=[BMT115277703.1.2.3 BBT109522464.1.2.3.0],Conns=[delta wye],kvs=[13.8 0.22],kvas=[45.000000000 45.000000000],Taps=[1,1.000000000],%loadloss=1.522000000,%noloadloss=0.377777000
new transformer.1364449 Phases=3,Windings=2,Buses=[BMT165090247.1.2.3 BBT127361572.1.2.3.0],Conns=[delta wye],kvs=[13.8 0.22],kvas=[45.000000000 45.000000000],Taps=[1,1.000000000],%loadloss=1.522000000,%noloadloss=0.377777000
new transformer.1364736 Phases=3,Windings=2,Buses=[BMT164228109.1.2.3 BBT127456548.1.2.3.0],Conns=[delta wye],kvs=[13.8 0.22],kvas=[150.000000000 150.000000000],Taps=[1,1.000000000],%loadloss=1.127000000,%noloadloss=0.280000000
new transformer.1365947 Phases=3,Windings=2,Buses=[BMT152520233.1.2.3 BBT128284641.1.2.3.0],Conns=[delta wye],kvs=[13.8 0.22],kvas=[45.000000000 45.000000000],Taps=[1,1.000000000],%loadloss=1.522000000,%noloadloss=0.377777000
new transformer.1366759 Phases=3,Windings=2,Buses=[BMT171262357.1.2.3 BBT128766248.1.2.3.0],Conns=[delta wye],kvs=[13.8 0.22],kvas=[45.000000000 45.000000000],Taps=[1,1.000000000],%loadloss=1.522000000,%noloadloss=0.377777000
new transformer.1400097 Phases=3,Windings=2,Buses=[BMT150595639.1.2.3 BBT150442359.1.2.3.0],Conns=[delta wye],kvs=[13.8 0.22],kvas=[75.000000000 75.000000000],Taps=[1,1.000000000],%loadloss=1.340000000,%noloadloss=0.340000000
new transformer.1417002 Phases=1,Windings=3,Buses=[BMT172829136.1 BBT154401111.1.0 BBT154401111.0.2],Conns=[wye wye wye],kvs=[7.967 0.12 0.12],kvas=[5.000000000 5.000000000 5.000000000],Taps=[1,1.000000000,1.000000000],%loadloss=1.900000000,%noloadloss=0.600000000
new transformer.1424686 Phases=3,Windings=2,Buses=[BMT166566251.1.2.3 BBT156038744.1.2.3.0],Conns=[delta wye],kvs=[13.8 0.22],kvas=[250.000000000 250.000000000],Taps=[1,1.000000000],%loadloss=0.990000000,%noloadloss=0.280000000
new transformer.1430896 Phases=3,Windings=2,Buses=[BMT158968685.1.2.3 BBT157409937.1.2.3.0],Conns=[delta wye],kvs=[13.8 0.22],kvas=[75.000000000 75.000000000],Taps=[1,1.000000000],%loadloss=1.340000000,%noloadloss=0.340000000
new transformer.1431050 Phases=3,Windings=2,Buses=[BMT157441417.1.2.3 BBT157441272.1.2.3.0],Conns=[delta wye],kvs=[13.8 0.22],kvas=[100.000000000 100.000000000],Taps=[1,1.000000000],%loadloss=1.218000000,%noloadloss=0.335000000
new transformer.1431515 Phases=3,Windings=2,Buses=[BMT165779954.1.2.3 BBT157549374.1.2.3.0],Conns=[delta wye],kvs=[13.8 0.22],kvas=[45.000000000 45.000000000],Taps=[1,1.000000000],%loadloss=1.522000000,%noloadloss=0.377777000
new transformer.1441956 Phases=3,Windings=2,Buses=[BMT159576010.1.2.3 BBT159575501.1.2.3.0],Conns=[delta wye],kvs=[13.8 0.22],kvas=[75.000000000 75.000000000],Taps=[1,1.000000000],%loadloss=1.340000000,%noloadloss=0.340000000
new transformer.1442458 Phases=3,Windings=2,Buses=[BMT165779961.1.2.3 BBT159668875.1.2.3.0],Conns=[delta wye],kvs=[13.8 0.22],kvas=[45.000000000 45.000000000],Taps=[1,1.000000000],%loadloss=1.522000000,%noloadloss=0.377777000
new transformer.1447760 Phases=3,Windings=2,Buses=[BMT161151165.1.2.3 BBT161151171.1.2.3.0],Conns=[delta wye],kvs=[13.8 0.22],kvas=[150.000000000 150.000000000],Taps=[1,1.000000000],%loadloss=1.127000000,%noloadloss=0.280000000
new transformer.1448069 Phases=3,Windings=2,Buses=[BMT165269612.1.2.3 BBT161222478.1.2.3.0],Conns=[delta wye],kvs=[13.8 0.22],kvas=[75.000000000 75.000000000],Taps=[1,1.000000000],%loadloss=1.340000000,%noloadloss=0.340000000
new transformer.1468094 Phases=3,Windings=2,Buses=[BMT171262222.1.2.3 BBT166109139.1.2.3.0],Conns=[delta wye],kvs=[13.8 0.22],kvas=[150.000000000 150.000000000],Taps=[1,1.000000000],%loadloss=1.127000000,%noloadloss=0.280000000
new transformer.1468226 Phases=3,Windings=2,Buses=[BMT172829134.1.2.3 BBT166139432.1.2.3.0],Conns=[delta wye],kvs=[13.8 0.22],kvas=[150.000000000 150.000000000],Taps=[1,1.000000000],%loadloss=1.127000000,%noloadloss=0.280000000
new transformer.1468640 Phases=3,Windings=2,Buses=[BMT166888709.1.2.3 BBT166224980.1.2.3.0],Conns=[delta wye],kvs=[13.8 0.22],kvas=[150.000000000 150.000000000],Taps=[1,1.000000000],%loadloss=1.127000000,%noloadloss=0.280000000
new transformer.1473656 Phases=3,Windings=2,Buses=[BMT167013542.1.2.3 BBT167012961.1.2.3.0],Conns=[delta wye],kvs=[13.8 0.22],kvas=[75.000000000 75.000000000],Taps=[1,1.000000000],%loadloss=1.340000000,%noloadloss=0.340000000
new transformer.1494021 Phases=3,Windings=2,Buses=[BMT170769341.1.2.3 BBT170769310.1.2.3.0],Conns=[delta wye],kvs=[13.8 0.22],kvas=[150.000000000 150.000000000],Taps=[1,1.000000000],%loadloss=1.127000000,%noloadloss=0.280000000
new transformer.1042526 Phases=1,Windings=3,Buses=[BMT158853374.3 BBT7169248.1.0 BBT7169248.0.2],Conns=[wye wye wye],kvs=[7.967 0.12 0.12],kvas=[15.000000000 15.000000000 15.000000000],Taps=[1,1.000000000,1.000000000],%loadloss=1.600000000,%noloadloss=0.400000000
new transformer.1043114 Phases=3,Windings=2,Buses=[BMT113855205.1.2.3 BBT7204010.1.2.3.0],Conns=[delta wye],kvs=[13.8 0.22],kvas=[45.000000000 45.000000000],Taps=[1,1.000000000],%loadloss=1.522000000,%noloadloss=0.377777000
new transformer.1059319 Phases=3,Windings=2,Buses=[BMT166199896.1.2.3 BBT10845403.1.2.3.0],Conns=[delta wye],kvs=[13.8 0.22],kvas=[45.000000000 45.000000000],Taps=[1,1.000000000],%loadloss=1.522000000,%noloadloss=0.377777000
new transformer.1059340 Phases=3,Windings=2,Buses=[BMT151253306.1.2.3 BBT10853838.1.2.3.0],Conns=[delta wye],kvs=[13.8 0.22],kvas=[30.000000000 30.000000000],Taps=[1,1.000000000],%loadloss=1.667000000,%noloadloss=0.433333000
new transformer.1102670 Phases=3,Windings=2,Buses=[BMT170641610.1.2.3 BBT23920528.1.2.3.0],Conns=[delta wye],kvs=[13.8 0.22],kvas=[75.000000000 75.000000000],Taps=[1,1.000000000],%loadloss=1.340000000,%noloadloss=0.340000000
new transformer.1248879 Phases=3,Windings=2,Buses=[BMT161029636.1.2.3 BBT59823360.1.2.3.0],Conns=[delta wye],kvs=[13.8 0.22],kvas=[45.000000000 45.000000000],Taps=[1,1.000000000],%loadloss=1.522000000,%noloadloss=0.377777000
new transformer.1251322 Phases=3,Windings=2,Buses=[BMT132317159.1.2.3 BBT60677864.1.2.3.0],Conns=[delta wye],kvs=[13.8 0.22],kvas=[45.000000000 45.000000000],Taps=[1,1.000000000],%loadloss=1.522000000,%noloadloss=0.377777000
new transformer.1271720 Phases=1,Windings=3,Buses=[BMT172594448.1 BBT84700611.1.0 BBT84700611.0.2],Conns=[wye wye wye],kvs=[7.967 0.12 0.12],kvas=[5.000000000 5.000000000 5.000000000],Taps=[1,1.000000000,1.000000000],%loadloss=1.900000000,%noloadloss=0.600000000
new transformer.1321931 Phases=3,Windings=2,Buses=[BMT173268356.1.2.3 BBT94368185.1.2.3.0],Conns=[delta wye],kvs=[13.8 0.22],kvas=[75.000000000 75.000000000],Taps=[1,1.000000000],%loadloss=1.340000000,%noloadloss=0.340000000
new transformer.1322694 Phases=3,Windings=2,Buses=[BMT100957691.1.2.3 BBT94817011.1.2.3.0],Conns=[delta wye],kvs=[13.8 0.22],kvas=[45.000000000 45.000000000],Taps=[1,1.000000000],%loadloss=1.522000000,%noloadloss=0.377777000
new transformer.1322792 Phases=3,Windings=2,Buses=[BMT159476235.1.2.3 BBT94872563.1.2.3.0],Conns=[delta wye],kvs=[13.8 0.22],kvas=[150.000000000 150.000000000],Taps=[1,1.000000000],%loadloss=1.127000000,%noloadloss=0.280000000
new transformer.1346585 Phases=3,Windings=2,Buses=[BMT118364416.1.2.3 BBT112767895.1.2.3.0],Conns=[delta wye],kvs=[13.8 0.22],kvas=[150.000000000 150.000000000],Taps=[1,1.000000000],%loadloss=1.127000000,%noloadloss=0.280000000
new transformer.1348559 Phases=3,Windings=2,Buses=[BMT164022847.1.2.3 BBT114093933.1.2.3.0],Conns=[delta wye],kvs=[13.8 0.22],kvas=[75.000000000 75.000000000],Taps=[1,1.000000000],%loadloss=1.340000000,%noloadloss=0.340000000
new transformer.1368278 Phases=3,Windings=2,Buses=[BMT171262221.1.2.3 BBT129950109.1.2.3.0],Conns=[delta wye],kvs=[13.8 0.22],kvas=[75.000000000 75.000000000],Taps=[1,1.000000000],%loadloss=1.340000000,%noloadloss=0.340000000
new transformer.1390448 Phases=3,Windings=2,Buses=[BMT166129844.1.2.3 BBT148126460.1.2.3.0],Conns=[delta wye],kvs=[13.8 0.22],kvas=[150.000000000 150.000000000],Taps=[1,1.000000000],%loadloss=1.127000000,%noloadloss=0.280000000
new transformer.1396519 Phases=3,Windings=2,Buses=[BMT167917643.1.2.3 BBT149572514.1.2.3.0],Conns=[delta wye],kvs=[13.8 0.22],kvas=[45.000000000 45.000000000],Taps=[1,1.000000000],%loadloss=1.522000000,%noloadloss=0.377777000
new transformer.1396528 Phases=3,Windings=2,Buses=[BMT166654675.1.2.3 BBT149575078.1.2.3.0],Conns=[delta wye],kvs=[13.8 0.22],kvas=[45.000000000 45.000000000],Taps=[1,1.000000000],%loadloss=1.522000000,%noloadloss=0.377777000
new transformer.1402644 Phases=3,Windings=2,Buses=[BMT168251410.1.2.3 BBT151083347.1.2.3.0],Conns=[delta wye],kvs=[13.8 0.22],kvas=[150.000000000 150.000000000],Taps=[1,1.000000000],%loadloss=1.127000000,%noloadloss=0.280000000
new transformer.1429151 Phases=1,Windings=3,Buses=[BMT164378695.1 BBT157026957.1.0 BBT157026957.0.2],Conns=[wye wye wye],kvs=[7.967 0.12 0.12],kvas=[5.000000000 5.000000000 5.000000000],Taps=[1,1.000000000,1.000000000],%loadloss=1.900000000,%noloadloss=0.600000000
new transformer.1441288 Phases=3,Windings=2,Buses=[BMT164228099.1.2.3 BBT159446638.1.2.3.0],Conns=[delta wye],kvs=[13.8 0.22],kvas=[45.000000000 45.000000000],Taps=[1,1.000000000],%loadloss=1.522000000,%noloadloss=0.377777000
new transformer.1441440 Phases=3,Windings=2,Buses=[BMT159550022.1.2.3 BBT159474842.1.2.3.0],Conns=[delta wye],kvs=[13.8 0.22],kvas=[75.000000000 75.000000000],Taps=[1,1.000000000],%loadloss=1.340000000,%noloadloss=0.340000000
new transformer.1459447 Phases=3,Windings=2,Buses=[BMT173139933.1.2.3 BBT164225702.1.2.3.0],Conns=[delta wye],kvs=[13.8 0.22],kvas=[150.000000000 150.000000000],Taps=[1,1.000000000],%loadloss=1.127000000,%noloadloss=0.280000000
new transformer.1459456 Phases=3,Windings=2,Buses=[BMT164228102.1.2.3 BBT164228111.1.2.3.0],Conns=[delta wye],kvs=[13.8 0.22],kvas=[75.000000000 75.000000000],Taps=[1,1.000000000],%loadloss=1.340000000,%noloadloss=0.340000000
new transformer.1459916 Phases=1,Windings=3,Buses=[BMT171602961.2 BBT164376751.1.0 BBT164376751.0.2],Conns=[wye wye wye],kvs=[7.967 0.12 0.12],kvas=[10.000000000 10.000000000 10.000000000],Taps=[1,1.000000000,1.000000000],%loadloss=1.800000000,%noloadloss=0.450000000
new transformer.1477222 Phases=3,Windings=2,Buses=[BMT167645836.1.2.3 BBT167638366.1.2.3.0],Conns=[delta wye],kvs=[13.8 0.22],kvas=[45.000000000 45.000000000],Taps=[1,1.000000000],%loadloss=1.522000000,%noloadloss=0.377777000
new transformer.1489921 Phases=3,Windings=2,Buses=[BMT169913077.1.2.3 BBT169912930.1.2.3.0],Conns=[delta wye],kvs=[13.8 0.22],kvas=[75.000000000 75.000000000],Taps=[1,1.000000000],%loadloss=1.340000000,%noloadloss=0.340000000
new transformer.1496272 Phases=3,Windings=2,Buses=[BMT171262353.1.2.3 BBT171262358.1.2.3.0],Conns=[delta wye],kvs=[13.8 0.22],kvas=[150.000000000 150.000000000],Taps=[1,1.000000000],%loadloss=1.127000000,%noloadloss=0.280000000
new transformer.1266057 Phases=3,Windings=2,Buses=[BMT100948087.1.2.3 BBT68327226.1.2.3.0],Conns=[delta wye],kvs=[13.8 0.22],kvas=[75.000000000 75.000000000],Taps=[1,1.000000000],%loadloss=1.340000000,%noloadloss=0.340000000
new transformer.1310528 Phases=3,Windings=2,Buses=[BMT100954849.1.2.3 BBT89314766.1.2.3.0],Conns=[delta wye],kvs=[13.8 0.22],kvas=[45.000000000 45.000000000],Taps=[1,1.000000000],%loadloss=1.522000000,%noloadloss=0.377777000
new transformer.1338696 Phases=1,Windings=3,Buses=[BMT172300066.2 BBT107254940.1.0 BBT107254940.0.2],Conns=[wye wye wye],kvs=[7.967 0.12 0.12],kvas=[5.000000000 5.000000000 5.000000000],Taps=[1,1.000000000,1.000000000],%loadloss=1.900000000,%noloadloss=0.600000000
new transformer.1338738 Phases=1,Windings=3,Buses=[BMT157441420.1 BBT107297339.1.0 BBT107297339.0.2],Conns=[wye wye wye],kvs=[7.967 0.12 0.12],kvas=[5.000000000 5.000000000 5.000000000],Taps=[1,1.000000000,1.000000000],%loadloss=1.900000000,%noloadloss=0.600000000
new transformer.1361677 Phases=1,Windings=3,Buses=[BMT171262356.1 BBT124808945.1.0 BBT124808945.0.2],Conns=[wye wye wye],kvs=[7.967 0.12 0.12],kvas=[5.000000000 5.000000000 5.000000000],Taps=[1,1.000000000,1.000000000],%loadloss=1.900000000,%noloadloss=0.600000000
new transformer.1361978 Phases=3,Windings=2,Buses=[BMT125213265.1.2.3 BBT125207343.1.2.3.0],Conns=[delta wye],kvs=[13.8 0.22],kvas=[45.000000000 45.000000000],Taps=[1,1.000000000],%loadloss=1.522000000,%noloadloss=0.377777000
new transformer.1362650 Phases=3,Windings=2,Buses=[BMT171095636.1.2.3 BBT125731685.1.2.3.0],Conns=[delta wye],kvs=[13.8 0.22],kvas=[150.000000000 150.000000000],Taps=[1,1.000000000],%loadloss=1.127000000,%noloadloss=0.280000000
new transformer.1362692 Phases=3,Windings=2,Buses=[BMT170641609.1.2.3 BBT125744663.1.2.3.0],Conns=[delta wye],kvs=[13.8 0.22],kvas=[75.000000000 75.000000000],Taps=[1,1.000000000],%loadloss=1.340000000,%noloadloss=0.340000000
new transformer.1362720 Phases=3,Windings=2,Buses=[BMT158968684.1.2.3 BBT125770087.1.2.3.0],Conns=[delta wye],kvs=[13.8 0.22],kvas=[75.000000000 75.000000000],Taps=[1,1.000000000],%loadloss=1.340000000,%noloadloss=0.340000000
new transformer.1363063 Phases=3,Windings=2,Buses=[BMT166654677.1.2.3 BBT126216610.1.2.3.0],Conns=[delta wye],kvs=[13.8 0.22],kvas=[45.000000000 45.000000000],Taps=[1,1.000000000],%loadloss=1.522000000,%noloadloss=0.377777000
new transformer.1363539 Phases=3,Windings=2,Buses=[BMT159365557.1.2.3 BBT126527102.1.2.3.0],Conns=[delta wye],kvs=[13.8 0.22],kvas=[45.000000000 45.000000000],Taps=[1,1.000000000],%loadloss=1.522000000,%noloadloss=0.377777000
new transformer.1363665 Phases=3,Windings=2,Buses=[BMT164022846.1.2.3 BBT126625200.1.2.3.0],Conns=[delta wye],kvs=[13.8 0.22],kvas=[45.000000000 45.000000000],Taps=[1,1.000000000],%loadloss=1.522000000,%noloadloss=0.377777000
new transformer.1364092 Phases=3,Windings=2,Buses=[BMT136903272.1.2.3 BBT127051787.1.2.3.0],Conns=[delta wye],kvs=[13.8 0.22],kvas=[45.000000000 45.000000000],Taps=[1,1.000000000],%loadloss=1.522000000,%noloadloss=0.377777000
new transformer.1410832 Phases=3,Windings=2,Buses=[BMT156119584.1.2.3 BBT153027538.1.2.3.0],Conns=[delta wye],kvs=[13.8 0.22],kvas=[75.000000000 75.000000000],Taps=[1,1.000000000],%loadloss=1.340000000,%noloadloss=0.340000000
new transformer.1434160 Phases=3,Windings=2,Buses=[BMT170651270.1.2.3 BBT158025947.1.2.3.0],Conns=[delta wye],kvs=[13.8 0.22],kvas=[45.000000000 45.000000000],Taps=[1,1.000000000],%loadloss=1.522000000,%noloadloss=0.377777000
new transformer.1444182 Phases=1,Windings=3,Buses=[BMT166566482.2 BBT160081806.1.0 BBT160081806.0.2],Conns=[wye wye wye],kvs=[7.967 0.12 0.12],kvas=[10.000000000 10.000000000 10.000000000],Taps=[1,1.000000000,1.000000000],%loadloss=1.800000000,%noloadloss=0.450000000
new transformer.1449561 Phases=3,Windings=2,Buses=[BMT164585253.1.2.3 BBT161544715.1.2.3.0],Conns=[delta wye],kvs=[13.8 0.22],kvas=[150.000000000 150.000000000],Taps=[1,1.000000000],%loadloss=1.127000000,%noloadloss=0.280000000
new transformer.1460113 Phases=3,Windings=2,Buses=[BMT165272148.1.2.3 BBT164407247.1.2.3.0],Conns=[delta wye],kvs=[13.8 0.22],kvas=[75.000000000 75.000000000],Taps=[1,1.000000000],%loadloss=1.340000000,%noloadloss=0.340000000
new transformer.1460116 Phases=3,Windings=2,Buses=[BMT165272147.1.2.3 BBT164407523.1.2.3.0],Conns=[delta wye],kvs=[13.8 0.22],kvas=[75.000000000 75.000000000],Taps=[1,1.000000000],%loadloss=1.340000000,%noloadloss=0.340000000
new transformer.1460117 Phases=3,Windings=2,Buses=[BMT165272146.1.2.3 BBT164407574.1.2.3.0],Conns=[delta wye],kvs=[13.8 0.22],kvas=[75.000000000 75.000000000],Taps=[1,1.000000000],%loadloss=1.340000000,%noloadloss=0.340000000
new transformer.1471332 Phases=3,Windings=2,Buses=[BMT166637393.1.2.3 BBT166637399.1.2.3.0],Conns=[delta wye],kvs=[13.8 0.22],kvas=[45.000000000 45.000000000],Taps=[1,1.000000000],%loadloss=1.522000000,%noloadloss=0.377777000
new transformer.1471455 Phases=3,Windings=2,Buses=[BMT166654571.1.2.3 BBT166654497.1.2.3.0],Conns=[delta wye],kvs=[13.8 0.22],kvas=[75.000000000 75.000000000],Taps=[1,1.000000000],%loadloss=1.340000000,%noloadloss=0.340000000
new transformer.1471678 Phases=3,Windings=2,Buses=[BMT169483151.1.2.3 BBT166688191.1.2.3.0],Conns=[delta wye],kvs=[13.8 0.22],kvas=[150.000000000 150.000000000],Taps=[1,1.000000000],%loadloss=1.127000000,%noloadloss=0.280000000
new transformer.1502106 Phases=3,Windings=2,Buses=[BMT173268354.1.2.3 BBT172443804.1.2.3.0],Conns=[delta wye],kvs=[13.8 0.22],kvas=[75.000000000 75.000000000],Taps=[1,1.000000000],%loadloss=1.340000000,%noloadloss=0.340000000
new transformer.1502111 Phases=3,Windings=2,Buses=[BMT172444978.1.2.3 BBT172444611.1.2.3.0],Conns=[delta wye],kvs=[13.8 0.22],kvas=[75.000000000 75.000000000],Taps=[1,1.000000000],%loadloss=1.340000000,%noloadloss=0.340000000
new transformer.521929 Phases=3,Windings=2,Buses=[BMT100951146.1.2.3 BBT1982528.1.2.3.0],Conns=[delta wye],kvs=[13.8 0.22],kvas=[100.000000000 100.000000000],Taps=[1,1.000000000],%loadloss=1.218000000,%noloadloss=0.335000000
new transformer.521936 Phases=3,Windings=2,Buses=[BMT170651267.1.2.3 BBT1982605.1.2.3.0],Conns=[delta wye],kvs=[13.8 0.22],kvas=[30.000000000 30.000000000],Taps=[1,1.000000000],%loadloss=1.667000000,%noloadloss=0.433333000
new transformer.1039306 Phases=3,Windings=2,Buses=[BMT168728288.1.2.3 BBT6775134.1.2.3.0],Conns=[delta wye],kvs=[13.8 0.22],kvas=[75.000000000 75.000000000],Taps=[1,1.000000000],%loadloss=1.340000000,%noloadloss=0.340000000
new transformer.1161239 Phases=3,Windings=2,Buses=[BMT100957719.1.2.3 BBT34995158.1.2.3.0],Conns=[delta wye],kvs=[13.8 0.22],kvas=[100.000000000 100.000000000],Taps=[1,1.000000000],%loadloss=1.218000000,%noloadloss=0.335000000
new transformer.1304655 Phases=3,Windings=2,Buses=[BMT169483154.1.2.3 BBT82342262.1.2.3.0],Conns=[delta wye],kvs=[13.8 0.22],kvas=[45.000000000 45.000000000],Taps=[1,1.000000000],%loadloss=1.522000000,%noloadloss=0.377777000
new transformer.1306230 Phases=1,Windings=3,Buses=[BMT100944223.1 BBT83909002.1.0 BBT83909002.0.2],Conns=[wye wye wye],kvs=[7.967 0.12 0.12],kvas=[5.000000000 5.000000000 5.000000000],Taps=[1,1.000000000,1.000000000],%loadloss=1.900000000,%noloadloss=0.600000000
new transformer.1354943 Phases=3,Windings=2,Buses=[BMT161151167.1.2.3 BBT119191347.1.2.3.0],Conns=[delta wye],kvs=[13.8 0.22],kvas=[75.000000000 75.000000000],Taps=[1,1.000000000],%loadloss=1.340000000,%noloadloss=0.340000000
new transformer.1355699 Phases=3,Windings=2,Buses=[BMT156264041.1.2.3 BBT119736332.1.2.3.0],Conns=[delta wye],kvs=[13.8 0.22],kvas=[45.000000000 45.000000000],Taps=[1,1.000000000],%loadloss=1.522000000,%noloadloss=0.377777000
new transformer.1357239 Phases=3,Windings=2,Buses=[BMT157084474.1.2.3 BBT121149534.1.2.3.0],Conns=[delta wye],kvs=[13.8 0.22],kvas=[75.000000000 75.000000000],Taps=[1,1.000000000],%loadloss=1.340000000,%noloadloss=0.340000000
new transformer.1357722 Phases=3,Windings=2,Buses=[BMT162775642.1.2.3 BBT121392938.1.2.3.0],Conns=[delta wye],kvs=[13.8 0.22],kvas=[75.000000000 75.000000000],Taps=[1,1.000000000],%loadloss=1.340000000,%noloadloss=0.340000000
new transformer.1408243 Phases=3,Windings=2,Buses=[BMT152520234.1.2.3 BBT152436700.1.2.3.0],Conns=[delta wye],kvs=[13.8 0.22],kvas=[45.000000000 45.000000000],Taps=[1,1.000000000],%loadloss=1.522000000,%noloadloss=0.377777000
new transformer.1430885 Phases=3,Windings=2,Buses=[BMT157407073.1.2.3 BBT157406957.1.2.3.0],Conns=[delta wye],kvs=[13.8 0.22],kvas=[45.000000000 45.000000000],Taps=[1,1.000000000],%loadloss=1.522000000,%noloadloss=0.377777000
new transformer.1436976 Phases=3,Windings=2,Buses=[BMT158549999.1.2.3 BBT158548545.1.2.3.0],Conns=[delta wye],kvs=[13.8 0.22],kvas=[150.000000000 150.000000000],Taps=[1,1.000000000],%loadloss=1.127000000,%noloadloss=0.280000000
new transformer.1442521 Phases=3,Windings=2,Buses=[BMT172876143.1.2.3 BBT159678723.1.2.3.0],Conns=[delta wye],kvs=[13.8 0.22],kvas=[150.000000000 150.000000000],Taps=[1,1.000000000],%loadloss=1.127000000,%noloadloss=0.280000000
new transformer.1450699 Phases=1,Windings=3,Buses=[BMT161927213.2 BBT161812061.1.0 BBT161812061.0.2],Conns=[wye wye wye],kvs=[7.967 0.12 0.12],kvas=[15.000000000 15.000000000 15.000000000],Taps=[1,1.000000000,1.000000000],%loadloss=1.600000000,%noloadloss=0.400000000
new transformer.1494439 Phases=3,Windings=2,Buses=[BMT170853640.1.2.3 BBT170853549.1.2.3.0],Conns=[delta wye],kvs=[13.8 0.22],kvas=[45.000000000 45.000000000],Taps=[1,1.000000000],%loadloss=1.522000000,%noloadloss=0.377777000
new transformer.1494443 Phases=3,Windings=2,Buses=[BMT171262217.1.2.3 BBT170854239.1.2.3.0],Conns=[delta wye],kvs=[13.8 0.22],kvas=[75.000000000 75.000000000],Taps=[1,1.000000000],%loadloss=1.340000000,%noloadloss=0.340000000
new transformer.1501062 Phases=3,Windings=2,Buses=[BMT173134739.1.2.3 BBT172216974.1.2.3.0],Conns=[delta wye],kvs=[13.8 0.22],kvas=[45.000000000 45.000000000],Taps=[1,1.000000000],%loadloss=1.522000000,%noloadloss=0.377777000
new transformer.1501211 Phases=3,Windings=2,Buses=[BMT172309958.1.2.3 BBT172250417.1.2.3.0],Conns=[delta wye],kvs=[13.8 0.22],kvas=[150.000000000 150.000000000],Taps=[1,1.000000000],%loadloss=1.127000000,%noloadloss=0.280000000
new transformer.1501212 Phases=3,Windings=2,Buses=[BMT172309959.1.2.3 BBT172250721.1.2.3.0],Conns=[delta wye],kvs=[13.8 0.22],kvas=[150.000000000 150.000000000],Taps=[1,1.000000000],%loadloss=1.127000000,%noloadloss=0.280000000
new transformer.1501396 Phases=3,Windings=2,Buses=[BMT172292233.1.2.3 BBT172289684.1.2.3.0],Conns=[delta wye],kvs=[13.8 0.22],kvas=[45.000000000 45.000000000],Taps=[1,1.000000000],%loadloss=1.522000000,%noloadloss=0.377777000
new transformer.521138 Phases=3,Windings=2,Buses=[BMT156119641.1.2.3 BBT1972721.1.2.3.0],Conns=[delta wye],kvs=[13.8 0.22],kvas=[75.000000000 75.000000000],Taps=[1,1.000000000],%loadloss=1.340000000,%noloadloss=0.340000000
new transformer.521152 Phases=3,Windings=2,Buses=[BMT168280388.1.2.3 BBT1972931.1.2.3.0],Conns=[delta wye],kvs=[13.8 0.22],kvas=[45.000000000 45.000000000],Taps=[1,1.000000000],%loadloss=1.522000000,%noloadloss=0.377777000
new transformer.521159 Phases=3,Windings=2,Buses=[BMT100952756.1.2 BBT1973043.1.2.3.0],Conns=[delta wye],kvs=[13.8 0.22],kvas=[25.000000000 25.000000000],Taps=[1,1.000000000],%loadloss=1.667000000,%noloadloss=0.520000000
new transformer.521166 Phases=3,Windings=2,Buses=[BMT167584969.1.2.3 BBT1973113.1.2.3.0],Conns=[delta wye],kvs=[13.8 0.22],kvas=[45.000000000 45.000000000],Taps=[1,1.000000000],%loadloss=1.522000000,%noloadloss=0.377777000
new transformer.521173 Phases=3,Windings=2,Buses=[BMT168280384.1.2.3 BBT1973204.1.2.3.0],Conns=[delta wye],kvs=[13.8 0.22],kvas=[45.000000000 45.000000000],Taps=[1,1.000000000],%loadloss=1.522000000,%noloadloss=0.377777000
new transformer.521180 Phases=3,Windings=2,Buses=[BMT158549995.1.2.3 BBT1973260.1.2.3.0],Conns=[delta wye],kvs=[13.8 0.22],kvas=[75.000000000 75.000000000],Taps=[1,1.000000000],%loadloss=1.340000000,%noloadloss=0.340000000
new transformer.521187 Phases=3,Windings=2,Buses=[BMT171095628.1.2.3 BBT1973414.1.2.3.0],Conns=[delta wye],kvs=[13.8 0.22],kvas=[75.000000000 75.000000000],Taps=[1,1.000000000],%loadloss=1.340000000,%noloadloss=0.340000000
new transformer.1248277 Phases=3,Windings=2,Buses=[BMT171222105.1.2.3 BBT59578213.1.2.3.0],Conns=[delta wye],kvs=[13.8 0.22],kvas=[75.000000000 75.000000000],Taps=[1,1.000000000],%loadloss=1.340000000,%noloadloss=0.340000000
new transformer.1342469 Phases=3,Windings=2,Buses=[BMT168728289.1.2.3 BBT109848272.1.2.3.0],Conns=[delta wye],kvs=[13.8 0.22],kvas=[75.000000000 75.000000000],Taps=[1,1.000000000],%loadloss=1.340000000,%noloadloss=0.340000000
new transformer.1342476 Phases=3,Windings=2,Buses=[BMT168048645.1.2.3 BBT109849714.1.2.3.0],Conns=[delta wye],kvs=[13.8 0.22],kvas=[45.000000000 45.000000000],Taps=[1,1.000000000],%loadloss=1.522000000,%noloadloss=0.377777000
new transformer.1343099 Phases=3,Windings=2,Buses=[BMT110390583.1.2.3 BBT110390142.1.2.3.0],Conns=[delta wye],kvs=[13.8 0.22],kvas=[75.000000000 75.000000000],Taps=[1,1.000000000],%loadloss=1.340000000,%noloadloss=0.340000000
new transformer.1344611 Phases=3,Windings=2,Buses=[BMT161029632.1.2.3 BBT111536399.1.2.3.0],Conns=[delta wye],kvs=[13.8 0.22],kvas=[45.000000000 45.000000000],Taps=[1,1.000000000],%loadloss=1.522000000,%noloadloss=0.377777000
new transformer.1344632 Phases=3,Windings=2,Buses=[BMT164022850.1.2.3 BBT111545520.1.2.3.0],Conns=[delta wye],kvs=[13.8 0.22],kvas=[30.000000000 30.000000000],Taps=[1,1.000000000],%loadloss=1.667000000,%noloadloss=0.433333000
new transformer.1344856 Phases=3,Windings=2,Buses=[BMT160993422.1.2.3 BBT111712078.1.2.3.0],Conns=[delta wye],kvs=[13.8 0.22],kvas=[75.000000000 75.000000000],Taps=[1,1.000000000],%loadloss=1.340000000,%noloadloss=0.340000000
new transformer.1371715 Phases=3,Windings=2,Buses=[BMT132302060.1.2.3 BBT132302095.1.2.3.0],Conns=[delta wye],kvs=[13.8 0.22],kvas=[45.000000000 45.000000000],Taps=[1,1.000000000],%loadloss=1.522000000,%noloadloss=0.377777000
new transformer.1391615 Phases=1,Windings=3,Buses=[BMT148430016.1 BBT148429938.1.0 BBT148429938.0.2],Conns=[wye wye wye],kvs=[7.967 0.12 0.12],kvas=[5.000000000 5.000000000 5.000000000],Taps=[1,1.000000000,1.000000000],%loadloss=1.900000000,%noloadloss=0.600000000
new transformer.1406315 Phases=3,Windings=2,Buses=[BMT170561381.1.2.3 BBT151934777.1.2.3.0],Conns=[delta wye],kvs=[13.8 0.22],kvas=[45.000000000 45.000000000],Taps=[1,1.000000000],%loadloss=1.522000000,%noloadloss=0.377777000
new transformer.1406327 Phases=3,Windings=2,Buses=[BMT151936942.1.2.3 BBT151936451.1.2.3.0],Conns=[delta wye],kvs=[13.8 0.22],kvas=[45.000000000 45.000000000],Taps=[1,1.000000000],%loadloss=1.522000000,%noloadloss=0.377777000
new transformer.1438952 Phases=3,Windings=2,Buses=[BMT158946688.1.2.3 BBT158946690.1.2.3.0],Conns=[delta wye],kvs=[13.8 0.22],kvas=[250.000000000 250.000000000],Taps=[1,1.000000000],%loadloss=0.990000000,%noloadloss=0.280000000
new transformer.1439595 Phases=3,Windings=2,Buses=[BMT165145617.1.2.3 BBT159090875.1.2.3.0],Conns=[delta wye],kvs=[13.8 0.22],kvas=[75.000000000 75.000000000],Taps=[1,1.000000000],%loadloss=1.340000000,%noloadloss=0.340000000
new transformer.1479509 Phases=3,Windings=2,Buses=[BMT168048646.1.2.3 BBT168048647.1.2.3.0],Conns=[delta wye],kvs=[13.8 0.22],kvas=[250.000000000 250.000000000],Taps=[1,1.000000000],%loadloss=0.990000000,%noloadloss=0.280000000
new transformer.1492967 Phases=3,Windings=2,Buses=[BMT170563156.1.2.3 BBT170561108.1.2.3.0],Conns=[delta wye],kvs=[13.8 0.22],kvas=[45.000000000 45.000000000],Taps=[1,1.000000000],%loadloss=1.522000000,%noloadloss=0.377777000
new transformer.1504791 Phases=1,Windings=3,Buses=[BMT173097179.1 BBT173093146.1.0 BBT173093146.0.2],Conns=[wye wye wye],kvs=[7.967 0.12 0.12],kvas=[10.000000000 10.000000000 10.000000000],Taps=[1,1.000000000,1.000000000],%loadloss=1.800000000,%noloadloss=0.450000000
new transformer.522720 Phases=3,Windings=2,Buses=[BMT170769342.1.2.3 BBT1991712.1.2.3.0],Conns=[delta wye],kvs=[13.8 0.22],kvas=[150.000000000 150.000000000],Taps=[1,1.000000000],%loadloss=1.127000000,%noloadloss=0.280000000
new transformer.522734 Phases=3,Windings=2,Buses=[BMT168048640.1.2.3 BBT1991859.1.2.3.0],Conns=[delta wye],kvs=[13.8 0.22],kvas=[75.000000000 75.000000000],Taps=[1,1.000000000],%loadloss=1.340000000,%noloadloss=0.340000000
new transformer.522741 Phases=3,Windings=2,Buses=[BMT173198925.1.2.3 BBT1991901.1.2.3.0],Conns=[delta wye],kvs=[13.8 0.22],kvas=[30.000000000 30.000000000],Taps=[1,1.000000000],%loadloss=1.667000000,%noloadloss=0.433333000
new transformer.522748 Phases=3,Windings=2,Buses=[BMT167904648.1.2.3 BBT1991915.1.2.3.0],Conns=[delta wye],kvs=[13.8 0.22],kvas=[75.000000000 75.000000000],Taps=[1,1.000000000],%loadloss=1.340000000,%noloadloss=0.340000000
new transformer.522755 Phases=3,Windings=2,Buses=[BMT152618681.1.2.3 BBT1992048.1.2.3.0],Conns=[delta wye],kvs=[13.8 0.22],kvas=[45.000000000 45.000000000],Taps=[1,1.000000000],%loadloss=1.522000000,%noloadloss=0.377777000
new transformer.522762 Phases=3,Windings=2,Buses=[BMT100949802.1.2.3 BBT1992181.1.2.3.0],Conns=[delta wye],kvs=[13.8 0.22],kvas=[75.000000000 75.000000000],Taps=[1,1.000000000],%loadloss=1.340000000,%noloadloss=0.340000000
new transformer.522776 Phases=3,Windings=2,Buses=[BMT148811353.1.2.3 BBT1992391.1.2.3.0],Conns=[delta wye],kvs=[13.8 0.22],kvas=[75.000000000 75.000000000],Taps=[1,1.000000000],%loadloss=1.340000000,%noloadloss=0.340000000
new transformer.522783 Phases=3,Windings=2,Buses=[BMT157084472.1.2.3 BBT1992524.1.2.3.0],Conns=[delta wye],kvs=[13.8 0.22],kvas=[100.000000000 100.000000000],Taps=[1,1.000000000],%loadloss=1.218000000,%noloadloss=0.335000000
new transformer.522790 Phases=3,Windings=2,Buses=[BMT100949459.1.2.3 BBT1992608.1.2.3.0],Conns=[delta wye],kvs=[13.8 0.22],kvas=[45.000000000 45.000000000],Taps=[1,1.000000000],%loadloss=1.522000000,%noloadloss=0.377777000
new transformer.522797 Phases=3,Windings=2,Buses=[BMT148811358.1.2.3 BBT1992671.1.2.3.0],Conns=[delta wye],kvs=[13.8 0.22],kvas=[45.000000000 45.000000000],Taps=[1,1.000000000],%loadloss=1.522000000,%noloadloss=0.377777000
new transformer.521943 Phases=3,Windings=2,Buses=[BMT106818322.1.2.3 BBT1982696.1.2.3.0],Conns=[delta wye],kvs=[13.8 0.22],kvas=[45.000000000 45.000000000],Taps=[1,1.000000000],%loadloss=1.522000000,%noloadloss=0.377777000
new transformer.521950 Phases=3,Windings=2,Buses=[BMT166199894.1.2.3 BBT1982801.1.2.3.0],Conns=[delta wye],kvs=[13.8 0.22],kvas=[30.000000000 30.000000000],Taps=[1,1.000000000],%loadloss=1.667000000,%noloadloss=0.433333000
new transformer.521957 Phases=3,Windings=2,Buses=[BMT170651269.1.2.3 BBT1982871.1.2.3.0],Conns=[delta wye],kvs=[13.8 0.22],kvas=[75.000000000 75.000000000],Taps=[1,1.000000000],%loadloss=1.340000000,%noloadloss=0.340000000
new transformer.521964 Phases=3,Windings=2,Buses=[BMT172300071.1.2.3 BBT1982983.1.2.3.0],Conns=[delta wye],kvs=[13.8 0.22],kvas=[75.000000000 75.000000000],Taps=[1,1.000000000],%loadloss=1.340000000,%noloadloss=0.340000000
new transformer.521971 Phases=3,Windings=2,Buses=[BMT166566253.1.2.3 BBT1983081.1.2.3.0],Conns=[delta wye],kvs=[13.8 0.22],kvas=[150.000000000 150.000000000],Taps=[1,1.000000000],%loadloss=1.127000000,%noloadloss=0.280000000
new transformer.521978 Phases=3,Windings=2,Buses=[BMT172671436.1.2.3 BBT1983193.1.2.3.0],Conns=[delta wye],kvs=[13.8 0.22],kvas=[75.000000000 75.000000000],Taps=[1,1.000000000],%loadloss=1.340000000,%noloadloss=0.340000000
new transformer.521992 Phases=3,Windings=2,Buses=[BMT106818364.1.2.3 BBT1983354.1.2.3.0],Conns=[delta wye],kvs=[13.8 0.22],kvas=[45.000000000 45.000000000],Taps=[1,1.000000000],%loadloss=1.522000000,%noloadloss=0.377777000
new transformer.521999 Phases=3,Windings=2,Buses=[BMT164585248.1.2.3 BBT1983494.1.2.3.0],Conns=[delta wye],kvs=[13.8 0.22],kvas=[75.000000000 75.000000000],Taps=[1,1.000000000],%loadloss=1.340000000,%noloadloss=0.340000000
new transformer.522006 Phases=3,Windings=2,Buses=[BMT172671434.1.2.3 BBT1983564.1.2.3.0],Conns=[delta wye],kvs=[13.8 0.22],kvas=[45.000000000 45.000000000],Taps=[1,1.000000000],%loadloss=1.522000000,%noloadloss=0.377777000
new transformer.522013 Phases=3,Windings=2,Buses=[BMT161029635.1.2.3 BBT1983648.1.2.3.0],Conns=[delta wye],kvs=[13.8 0.22],kvas=[75.000000000 75.000000000],Taps=[1,1.000000000],%loadloss=1.340000000,%noloadloss=0.340000000
new transformer.522020 Phases=3,Windings=2,Buses=[BMT159911127.1.2.3 BBT1983795.1.2.3.0],Conns=[delta wye],kvs=[13.8 0.22],kvas=[75.000000000 75.000000000],Taps=[1,1.000000000],%loadloss=1.340000000,%noloadloss=0.340000000
new transformer.522027 Phases=3,Windings=2,Buses=[BMT108010268.1.2.3 BBT1983858.1.2.3.0],Conns=[delta wye],kvs=[13.8 0.22],kvas=[45.000000000 45.000000000],Taps=[1,1.000000000],%loadloss=1.522000000,%noloadloss=0.377777000
new transformer.522034 Phases=3,Windings=2,Buses=[BMT100951573.1.2.3 BBT1983928.1.2.3.0],Conns=[delta wye],kvs=[13.8 0.22],kvas=[45.000000000 45.000000000],Taps=[1,1.000000000],%loadloss=1.522000000,%noloadloss=0.377777000
new transformer.522041 Phases=3,Windings=2,Buses=[BMT172671431.1.2.3 BBT1983991.1.2.3.0],Conns=[delta wye],kvs=[13.8 0.22],kvas=[75.000000000 75.000000000],Taps=[1,1.000000000],%loadloss=1.340000000,%noloadloss=0.340000000
new transformer.522048 Phases=3,Windings=2,Buses=[BMT100945077.1.2.3 BBT1984096.1.2.3.0],Conns=[delta wye],kvs=[13.8 0.22],kvas=[45.000000000 45.000000000],Taps=[1,1.000000000],%loadloss=1.522000000,%noloadloss=0.377777000
new transformer.522055 Phases=3,Windings=2,Buses=[BMT100946498.1.2.3 BBT1984187.1.2.3.0],Conns=[delta wye],kvs=[13.8 0.22],kvas=[75.000000000 75.000000000],Taps=[1,1.000000000],%loadloss=1.340000000,%noloadloss=0.340000000
new transformer.522062 Phases=3,Windings=2,Buses=[BMT170651265.1.2.3 BBT1984320.1.2.3.0],Conns=[delta wye],kvs=[13.8 0.22],kvas=[45.000000000 45.000000000],Taps=[1,1.000000000],%loadloss=1.522000000,%noloadloss=0.377777000
new transformer.522069 Phases=3,Windings=2,Buses=[BMT108010198.1.2.3 BBT1984390.1.2.3.0],Conns=[delta wye],kvs=[13.8 0.22],kvas=[75.000000000 75.000000000],Taps=[1,1.000000000],%loadloss=1.340000000,%noloadloss=0.340000000
new transformer.522076 Phases=3,Windings=2,Buses=[BMT166199895.1.2.3 BBT1984495.1.2.3.0],Conns=[delta wye],kvs=[13.8 0.22],kvas=[30.000000000 30.000000000],Taps=[1,1.000000000],%loadloss=1.667000000,%noloadloss=0.433333000
new transformer.522083 Phases=3,Windings=2,Buses=[BMT172667939.1.2.3 BBT1984551.1.2.3.0],Conns=[delta wye],kvs=[13.8 0.22],kvas=[75.000000000 75.000000000],Taps=[1,1.000000000],%loadloss=1.340000000,%noloadloss=0.340000000
new transformer.522090 Phases=3,Windings=2,Buses=[BMT172300053.1.2.3 BBT1984642.1.2.3.0],Conns=[delta wye],kvs=[13.8 0.22],kvas=[75.000000000 75.000000000],Taps=[1,1.000000000],%loadloss=1.340000000,%noloadloss=0.340000000
new transformer.522097 Phases=3,Windings=2,Buses=[BMT148811386.1.2.3 BBT1984719.1.2.3.0],Conns=[delta wye],kvs=[13.8 0.22],kvas=[75.000000000 75.000000000],Taps=[1,1.000000000],%loadloss=1.340000000,%noloadloss=0.340000000
new transformer.522104 Phases=3,Windings=2,Buses=[BMT164022849.1.2.3 BBT1984810.1.2.3.0],Conns=[delta wye],kvs=[13.8 0.22],kvas=[75.000000000 75.000000000],Taps=[1,1.000000000],%loadloss=1.340000000,%noloadloss=0.340000000
new transformer.522111 Phases=3,Windings=2,Buses=[BMT100947289.1.2.3 BBT1984985.1.2.3.0],Conns=[delta wye],kvs=[13.8 0.22],kvas=[75.000000000 75.000000000],Taps=[1,1.000000000],%loadloss=1.340000000,%noloadloss=0.340000000
new transformer.522118 Phases=3,Windings=2,Buses=[BMT100951685.1.2.3 BBT1985125.1.2.3.0],Conns=[delta wye],kvs=[13.8 0.22],kvas=[75.000000000 75.000000000],Taps=[1,1.000000000],%loadloss=1.340000000,%noloadloss=0.340000000
new transformer.522125 Phases=3,Windings=2,Buses=[BMT100949298.1.2.3 BBT1985223.1.2.3.0],Conns=[delta wye],kvs=[13.8 0.22],kvas=[75.000000000 75.000000000],Taps=[1,1.000000000],%loadloss=1.340000000,%noloadloss=0.340000000
new transformer.522132 Phases=3,Windings=2,Buses=[BMT164585254.1.2.3 BBT1985335.1.2.3.0],Conns=[delta wye],kvs=[13.8 0.22],kvas=[100.000000000 100.000000000],Taps=[1,1.000000000],%loadloss=1.218000000,%noloadloss=0.335000000
new transformer.522139 Phases=3,Windings=2,Buses=[BMT164022844.1.2.3 BBT1985384.1.2.3.0],Conns=[delta wye],kvs=[13.8 0.22],kvas=[75.000000000 75.000000000],Taps=[1,1.000000000],%loadloss=1.340000000,%noloadloss=0.340000000
new transformer.522146 Phases=3,Windings=2,Buses=[BMT166566252.1.2.3 BBT1985503.1.2.3.0],Conns=[delta wye],kvs=[13.8 0.22],kvas=[100.000000000 100.000000000],Taps=[1,1.000000000],%loadloss=1.218000000,%noloadloss=0.335000000
new transformer.522804 Phases=3,Windings=2,Buses=[BMT157634032.1.2.3 BBT1992755.1.2.3.0],Conns=[delta wye],kvs=[13.8 0.22],kvas=[45.000000000 45.000000000],Taps=[1,1.000000000],%loadloss=1.522000000,%noloadloss=0.377777000
new transformer.522811 Phases=3,Windings=2,Buses=[BMT100950271.1.2.3 BBT1992804.1.2.3.0],Conns=[delta wye],kvs=[13.8 0.22],kvas=[100.000000000 100.000000000],Taps=[1,1.000000000],%loadloss=1.218000000,%noloadloss=0.335000000
new transformer.522818 Phases=3,Windings=2,Buses=[BMT171603074.1.2.3 BBT1992902.1.2.3.0],Conns=[delta wye],kvs=[13.8 0.22],kvas=[45.000000000 45.000000000],Taps=[1,1.000000000],%loadloss=1.522000000,%noloadloss=0.377777000
new transformer.522825 Phases=3,Windings=2,Buses=[BMT100949445.1.2.3 BBT1993028.1.2.3.0],Conns=[delta wye],kvs=[13.8 0.22],kvas=[45.000000000 45.000000000],Taps=[1,1.000000000],%loadloss=1.522000000,%noloadloss=0.377777000
new transformer.522832 Phases=3,Windings=2,Buses=[BMT158401116.1.2.3 BBT1993098.1.2.3.0],Conns=[delta wye],kvs=[13.8 0.22],kvas=[45.000000000 45.000000000],Taps=[1,1.000000000],%loadloss=1.522000000,%noloadloss=0.377777000
new transformer.522839 Phases=3,Windings=2,Buses=[BMT100950047.1.2.3 BBT1993161.1.2.3.0],Conns=[delta wye],kvs=[13.8 0.22],kvas=[45.000000000 45.000000000],Taps=[1,1.000000000],%loadloss=1.522000000,%noloadloss=0.377777000
new transformer.522853 Phases=3,Windings=2,Buses=[BMT164868453.1.2.3 BBT1993343.1.2.3.0],Conns=[delta wye],kvs=[13.8 0.22],kvas=[75.000000000 75.000000000],Taps=[1,1.000000000],%loadloss=1.340000000,%noloadloss=0.340000000
new transformer.522860 Phases=3,Windings=2,Buses=[BMT167904647.1.2.3 BBT1993441.1.2.3.0],Conns=[delta wye],kvs=[13.8 0.22],kvas=[45.000000000 45.000000000],Taps=[1,1.000000000],%loadloss=1.522000000,%noloadloss=0.377777000
new transformer.522867 Phases=1,Windings=3,Buses=[BMT100950278.2 BBT1993483.1.0 BBT1993483.0.2],Conns=[wye wye wye],kvs=[7.967 0.12 0.12],kvas=[25.000000000 25.000000000 25.000000000],Taps=[1,1.000000000,1.000000000],%loadloss=1.420000000,%noloadloss=0.320000000
new transformer.522874 Phases=3,Windings=2,Buses=[BMT100946484.1.2.3 BBT1993539.1.2.3.0],Conns=[delta wye],kvs=[13.8 0.22],kvas=[30.000000000 30.000000000],Taps=[1,1.000000000],%loadloss=1.667000000,%noloadloss=0.433333000
! teste 1.4
!new transformer.522888 Phases=3,Windings=2,Buses=[BMT100950040.1.2.3 BBT1993798.1.2.3.0],Conns=[delta wye],kvs=[13.8 0.22],kvas=[30.000000000 30.000000000],Taps=[1,1.000000000],%loadloss=1.667000000,%noloadloss=0.433333000
new transformer.522895 Phases=3,Windings=2,Buses=[BMT157895760.1.2.3 BBT1993875.1.2.3.0],Conns=[delta wye],kvs=[13.8 0.22],kvas=[30.000000000 30.000000000],Taps=[1,1.000000000],%loadloss=1.667000000,%noloadloss=0.433333000
new transformer.522909 Phases=3,Windings=2,Buses=[BMT153464051.1.2.3 BBT1994113.1.2.3.0],Conns=[delta wye],kvs=[13.8 0.22],kvas=[75.000000000 75.000000000],Taps=[1,1.000000000],%loadloss=1.340000000,%noloadloss=0.340000000
new transformer.522923 Phases=3,Windings=2,Buses=[BMT160932294.1.2.3 BBT1994197.1.2.3.0],Conns=[delta wye],kvs=[13.8 0.22],kvas=[45.000000000 45.000000000],Taps=[1,1.000000000],%loadloss=1.522000000,%noloadloss=0.377777000
new transformer.522930 Phases=3,Windings=2,Buses=[BMT133045278.1.2.3 BBT1994442.1.2.3.0],Conns=[delta wye],kvs=[13.8 0.22],kvas=[75.000000000 75.000000000],Taps=[1,1.000000000],%loadloss=1.340000000,%noloadloss=0.340000000
new transformer.522944 Phases=3,Windings=2,Buses=[BMT104849138.1.2.3 BBT1994736.1.2.3.0],Conns=[delta wye],kvs=[13.8 0.22],kvas=[75.000000000 75.000000000],Taps=[1,1.000000000],%loadloss=1.340000000,%noloadloss=0.340000000
!teste 1.5
!new transformer.522951 Phases=3,Windings=2,Buses=[BMT100949732.1.2.3 BBT1994806.1.2.3.0],Conns=[delta wye],kvs=[13.8 0.22],kvas=[75.000000000 75.000000000],Taps=[1,1.000000000],%loadloss=1.340000000,%noloadloss=0.340000000
new transformer.522958 Phases=3,Windings=2,Buses=[BMT100950019.1.2.3 BBT1994911.1.2.3.0],Conns=[delta wye],kvs=[13.8 0.22],kvas=[45.000000000 45.000000000],Taps=[1,1.000000000],%loadloss=1.522000000,%noloadloss=0.377777000
new transformer.522965 Phases=3,Windings=2,Buses=[BMT168048639.1.2.3 BBT1995016.1.2.3.0],Conns=[delta wye],kvs=[13.8 0.22],kvas=[75.000000000 75.000000000],Taps=[1,1.000000000],%loadloss=1.340000000,%noloadloss=0.340000000
new transformer.522986 Phases=3,Windings=2,Buses=[BMT171603070.1.2.3 BBT1995219.1.2.3.0],Conns=[delta wye],kvs=[13.8 0.22],kvas=[75.000000000 75.000000000],Taps=[1,1.000000000],%loadloss=1.340000000,%noloadloss=0.340000000
new transformer.522993 Phases=3,Windings=2,Buses=[BMT152618683.1.2.3 BBT1995373.1.2.3.0],Conns=[delta wye],kvs=[13.8 0.22],kvas=[45.000000000 45.000000000],Taps=[1,1.000000000],%loadloss=1.522000000,%noloadloss=0.377777000
new transformer.523000 Phases=3,Windings=2,Buses=[BMT100954443.1.2.3 BBT1995443.1.2.3.0],Conns=[delta wye],kvs=[13.8 0.22],kvas=[75.000000000 75.000000000],Taps=[1,1.000000000],%loadloss=1.340000000,%noloadloss=0.340000000
new transformer.523007 Phases=3,Windings=2,Buses=[BMT171603073.1.2.3 BBT1995520.1.2.3.0],Conns=[delta wye],kvs=[13.8 0.22],kvas=[75.000000000 75.000000000],Taps=[1,1.000000000],%loadloss=1.340000000,%noloadloss=0.340000000
new transformer.523035 Phases=3,Windings=2,Buses=[BMT171602056.1.2.3 BBT1996024.1.2.3.0],Conns=[delta wye],kvs=[13.8 0.22],kvas=[75.000000000 75.000000000],Taps=[1,1.000000000],%loadloss=1.340000000,%noloadloss=0.340000000
new transformer.523042 Phases=3,Windings=2,Buses=[BMT157895766.1.2.3 BBT1996129.1.2.3.0],Conns=[delta wye],kvs=[13.8 0.22],kvas=[75.000000000 75.000000000],Taps=[1,1.000000000],%loadloss=1.340000000,%noloadloss=0.340000000
new transformer.523049 Phases=3,Windings=2,Buses=[BMT115277696.1.2.3 BBT1996234.1.2.3.0],Conns=[delta wye],kvs=[13.8 0.22],kvas=[75.000000000 75.000000000],Taps=[1,1.000000000],%loadloss=1.340000000,%noloadloss=0.340000000
new transformer.523056 Phases=3,Windings=2,Buses=[BMT158401110.1.2.3 BBT1996346.1.2.3.0],Conns=[delta wye],kvs=[13.8 0.22],kvas=[75.000000000 75.000000000],Taps=[1,1.000000000],%loadloss=1.340000000,%noloadloss=0.340000000
new transformer.523063 Phases=3,Windings=2,Buses=[BMT152618684.1.2.3 BBT1996423.1.2.3.0],Conns=[delta wye],kvs=[13.8 0.22],kvas=[45.000000000 45.000000000],Taps=[1,1.000000000],%loadloss=1.522000000,%noloadloss=0.377777000
new transformer.523070 Phases=3,Windings=2,Buses=[BMT157895764.1.2.3 BBT1996486.1.2.3.0],Conns=[delta wye],kvs=[13.8 0.22],kvas=[75.000000000 75.000000000],Taps=[1,1.000000000],%loadloss=1.340000000,%noloadloss=0.340000000
new transformer.521194 Phases=3,Windings=2,Buses=[BMT167983591.1.2.3 BBT1973498.1.2.3.0],Conns=[delta wye],kvs=[13.8 0.22],kvas=[75.000000000 75.000000000],Taps=[1,1.000000000],%loadloss=1.340000000,%noloadloss=0.340000000
new transformer.521201 Phases=3,Windings=2,Buses=[BMT171095629.1.2.3 BBT1973533.1.2.3.0],Conns=[delta wye],kvs=[13.8 0.22],kvas=[30.000000000 30.000000000],Taps=[1,1.000000000],%loadloss=1.667000000,%noloadloss=0.433333000
new transformer.521222 Phases=1,Windings=3,Buses=[BMT148877906.3 BBT1973799.1.0 BBT1973799.0.2],Conns=[wye wye wye],kvs=[7.967 0.12 0.12],kvas=[35.000000000 35.000000000 35.000000000],Taps=[1,1.000000000,1.000000000],%loadloss=1.293000000,%noloadloss=0.342857000
new transformer.521236 Phases=3,Windings=2,Buses=[BMT168280383.1.2.3 BBT1974002.1.2.3.0],Conns=[delta wye],kvs=[13.8 0.22],kvas=[75.000000000 75.000000000],Taps=[1,1.000000000],%loadloss=1.340000000,%noloadloss=0.340000000
new transformer.521243 Phases=3,Windings=2,Buses=[BMT171095633.1.2.3 BBT1974079.1.2.3.0],Conns=[delta wye],kvs=[13.8 0.22],kvas=[75.000000000 75.000000000],Taps=[1,1.000000000],%loadloss=1.340000000,%noloadloss=0.340000000
new transformer.521257 Phases=3,Windings=2,Buses=[BMT156119567.1.2.3 BBT1974163.1.2.3.0],Conns=[delta wye],kvs=[13.8 0.22],kvas=[75.000000000 75.000000000],Taps=[1,1.000000000],%loadloss=1.340000000,%noloadloss=0.340000000
new transformer.521264 Phases=3,Windings=2,Buses=[BMT165269610.1.2.3 BBT1974289.1.2.3.0],Conns=[delta wye],kvs=[13.8 0.22],kvas=[75.000000000 75.000000000],Taps=[1,1.000000000],%loadloss=1.340000000,%noloadloss=0.340000000
new transformer.521271 Phases=3,Windings=2,Buses=[BMT169483150.1.2.3 BBT1974429.1.2.3.0],Conns=[delta wye],kvs=[13.8 0.22],kvas=[150.000000000 150.000000000],Taps=[1,1.000000000],%loadloss=1.127000000,%noloadloss=0.280000000
new transformer.521278 Phases=3,Windings=2,Buses=[BMT159294966.1.2.3 BBT1974464.1.2.3.0],Conns=[delta wye],kvs=[13.8 0.22],kvas=[150.000000000 150.000000000],Taps=[1,1.000000000],%loadloss=1.127000000,%noloadloss=0.280000000
new transformer.521292 Phases=3,Windings=2,Buses=[BMT129949304.1.2.3 BBT1974555.1.2.3.0],Conns=[delta wye],kvs=[13.8 0.22],kvas=[75.000000000 75.000000000],Taps=[1,1.000000000],%loadloss=1.340000000,%noloadloss=0.340000000
new transformer.521306 Phases=3,Windings=2,Buses=[BMT171095635.1.2.3 BBT1974751.1.2.3.0],Conns=[delta wye],kvs=[13.8 0.22],kvas=[75.000000000 75.000000000],Taps=[1,1.000000000],%loadloss=1.340000000,%noloadloss=0.340000000
new transformer.521313 Phases=1,Windings=3,Buses=[BMT148877910.3 BBT1974870.1.0 BBT1974870.0.2],Conns=[wye wye wye],kvs=[7.967 0.12 0.12],kvas=[35.000000000 35.000000000 35.000000000],Taps=[1,1.000000000,1.000000000],%loadloss=1.293000000,%noloadloss=0.342857000
new transformer.521327 Phases=3,Windings=2,Buses=[BMT156119568.1.2.3 BBT1975122.1.2.3.0],Conns=[delta wye],kvs=[13.8 0.22],kvas=[75.000000000 75.000000000],Taps=[1,1.000000000],%loadloss=1.340000000,%noloadloss=0.340000000
new transformer.521334 Phases=3,Windings=2,Buses=[BMT171095647.1.2.3 BBT1975248.1.2.3.0],Conns=[delta wye],kvs=[13.8 0.22],kvas=[75.000000000 75.000000000],Taps=[1,1.000000000],%loadloss=1.340000000,%noloadloss=0.340000000
new transformer.521341 Phases=3,Windings=2,Buses=[BMT164232346.1.2.3 BBT1975325.1.2.3.0],Conns=[delta wye],kvs=[13.8 0.22],kvas=[30.000000000 30.000000000],Taps=[1,1.000000000],%loadloss=1.667000000,%noloadloss=0.433333000
new transformer.521362 Phases=3,Windings=2,Buses=[BMT166051782.1.2.3 BBT1975612.1.2.3.0],Conns=[delta wye],kvs=[13.8 0.22],kvas=[75.000000000 75.000000000],Taps=[1,1.000000000],%loadloss=1.340000000,%noloadloss=0.340000000
new transformer.521369 Phases=3,Windings=2,Buses=[BMT170561387.1.2.3 BBT1975752.1.2.3.0],Conns=[delta wye],kvs=[13.8 0.22],kvas=[75.000000000 75.000000000],Taps=[1,1.000000000],%loadloss=1.340000000,%noloadloss=0.340000000
new transformer.521376 Phases=1,Windings=3,Buses=[BMT148877905.3 BBT1975808.1.0 BBT1975808.0.2],Conns=[wye wye wye],kvs=[7.967 0.12 0.12],kvas=[35.000000000 35.000000000 35.000000000],Taps=[1,1.000000000,1.000000000],%loadloss=1.293000000,%noloadloss=0.342857000
new transformer.521383 Phases=3,Windings=2,Buses=[BMT156119571.1.2.3 BBT1975864.1.2.3.0],Conns=[delta wye],kvs=[13.8 0.22],kvas=[75.000000000 75.000000000],Taps=[1,1.000000000],%loadloss=1.340000000,%noloadloss=0.340000000
new transformer.521397 Phases=3,Windings=2,Buses=[BMT170561384.1.2.3 BBT1975976.1.2.3.0],Conns=[delta wye],kvs=[13.8 0.22],kvas=[75.000000000 75.000000000],Taps=[1,1.000000000],%loadloss=1.340000000,%noloadloss=0.340000000
new transformer.521404 Phases=3,Windings=2,Buses=[BMT171145703.1.2.3 BBT1976053.1.2.3.0],Conns=[delta wye],kvs=[13.8 0.22],kvas=[75.000000000 75.000000000],Taps=[1,1.000000000],%loadloss=1.340000000,%noloadloss=0.340000000
new transformer.521411 Phases=3,Windings=2,Buses=[BMT104317152.1.2.3 BBT1976158.1.2.3.0],Conns=[delta wye],kvs=[13.8 0.22],kvas=[30.000000000 30.000000000],Taps=[1,1.000000000],%loadloss=1.667000000,%noloadloss=0.433333000
new transformer.521418 Phases=3,Windings=2,Buses=[BMT148708526.1.2.3 BBT1976228.1.2.3.0],Conns=[delta wye],kvs=[13.8 0.22],kvas=[75.000000000 75.000000000],Taps=[1,1.000000000],%loadloss=1.340000000,%noloadloss=0.340000000
new transformer.521432 Phases=3,Windings=2,Buses=[BMT159294965.1.2.3 BBT1976333.1.2.3.0],Conns=[delta wye],kvs=[13.8 0.22],kvas=[75.000000000 75.000000000],Taps=[1,1.000000000],%loadloss=1.340000000,%noloadloss=0.340000000
new transformer.521439 Phases=3,Windings=2,Buses=[BMT171095651.1.2.3 BBT1976403.1.2.3.0],Conns=[delta wye],kvs=[13.8 0.22],kvas=[45.000000000 45.000000000],Taps=[1,1.000000000],%loadloss=1.522000000,%noloadloss=0.377777000
new transformer.521446 Phases=3,Windings=2,Buses=[BMT126977384.1.2.3 BBT1976473.1.2.3.0],Conns=[delta wye],kvs=[13.8 0.22],kvas=[75.000000000 75.000000000],Taps=[1,1.000000000],%loadloss=1.340000000,%noloadloss=0.340000000
new transformer.521453 Phases=3,Windings=2,Buses=[BMT156119572.1.2.3 BBT1976585.1.2.3.0],Conns=[delta wye],kvs=[13.8 0.22],kvas=[45.000000000 45.000000000],Taps=[1,1.000000000],%loadloss=1.522000000,%noloadloss=0.377777000
new transformer.521460 Phases=3,Windings=2,Buses=[BMT101011794.1.2.3 BBT1976669.1.2.3.0],Conns=[delta wye],kvs=[13.8 0.22],kvas=[75.000000000 75.000000000],Taps=[1,1.000000000],%loadloss=1.340000000,%noloadloss=0.340000000
new transformer.521467 Phases=3,Windings=2,Buses=[BMT123691395.1.2.3 BBT1976739.1.2.3.0],Conns=[delta wye],kvs=[13.8 0.22],kvas=[45.000000000 45.000000000],Taps=[1,1.000000000],%loadloss=1.522000000,%noloadloss=0.377777000
new transformer.522153 Phases=3,Windings=2,Buses=[BMT173139939.1.2.3 BBT1985545.1.2.3.0],Conns=[delta wye],kvs=[13.8 0.22],kvas=[75.000000000 75.000000000],Taps=[1,1.000000000],%loadloss=1.340000000,%noloadloss=0.340000000
new transformer.522160 Phases=3,Windings=2,Buses=[BMT159911129.1.2.3 BBT1985587.1.2.3.0],Conns=[delta wye],kvs=[13.8 0.22],kvas=[75.000000000 75.000000000],Taps=[1,1.000000000],%loadloss=1.340000000,%noloadloss=0.340000000
new transformer.522167 Phases=3,Windings=2,Buses=[BMT170651266.1.2.3 BBT1985664.1.2.3.0],Conns=[delta wye],kvs=[13.8 0.22],kvas=[45.000000000 45.000000000],Taps=[1,1.000000000],%loadloss=1.522000000,%noloadloss=0.377777000
new transformer.522174 Phases=3,Windings=2,Buses=[BMT100949305.1.2.3 BBT1985769.1.2.3.0],Conns=[delta wye],kvs=[13.8 0.22],kvas=[30.000000000 30.000000000],Taps=[1,1.000000000],%loadloss=1.667000000,%noloadloss=0.433333000
new transformer.522188 Phases=3,Windings=2,Buses=[BMT106818371.1.2.3 BBT1985958.1.2.3.0],Conns=[delta wye],kvs=[13.8 0.22],kvas=[75.000000000 75.000000000],Taps=[1,1.000000000],%loadloss=1.340000000,%noloadloss=0.340000000
new transformer.522195 Phases=3,Windings=2,Buses=[BMT167904650.1.2.3 BBT1986000.1.2.3.0],Conns=[delta wye],kvs=[13.8 0.22],kvas=[30.000000000 30.000000000],Taps=[1,1.000000000],%loadloss=1.667000000,%noloadloss=0.433333000
new transformer.522202 Phases=3,Windings=2,Buses=[BMT100951552.1.2.3 BBT1986098.1.2.3.0],Conns=[delta wye],kvs=[13.8 0.22],kvas=[75.000000000 75.000000000],Taps=[1,1.000000000],%loadloss=1.340000000,%noloadloss=0.340000000
new transformer.522209 Phases=3,Windings=2,Buses=[BMT164868456.1.2.3 BBT1986203.1.2.3.0],Conns=[delta wye],kvs=[13.8 0.22],kvas=[30.000000000 30.000000000],Taps=[1,1.000000000],%loadloss=1.667000000,%noloadloss=0.433333000
new transformer.522216 Phases=3,Windings=2,Buses=[BMT100944846.1.2.3 BBT1986301.1.2.3.0],Conns=[delta wye],kvs=[13.8 0.22],kvas=[75.000000000 75.000000000],Taps=[1,1.000000000],%loadloss=1.340000000,%noloadloss=0.340000000
new transformer.522223 Phases=3,Windings=2,Buses=[BMT172671429.1.2.3 BBT1986378.1.2.3.0],Conns=[delta wye],kvs=[13.8 0.22],kvas=[75.000000000 75.000000000],Taps=[1,1.000000000],%loadloss=1.340000000,%noloadloss=0.340000000
new transformer.522230 Phases=3,Windings=2,Buses=[BMT164585252.1.2.3 BBT1986490.1.2.3.0],Conns=[delta wye],kvs=[13.8 0.22],kvas=[150.000000000 150.000000000],Taps=[1,1.000000000],%loadloss=1.127000000,%noloadloss=0.280000000
new transformer.522237 Phases=3,Windings=2,Buses=[BMT173139938.1.2.3 BBT1986567.1.2.3.0],Conns=[delta wye],kvs=[13.8 0.22],kvas=[75.000000000 75.000000000],Taps=[1,1.000000000],%loadloss=1.340000000,%noloadloss=0.340000000
new transformer.522251 Phases=3,Windings=2,Buses=[BMT100947296.1.2.3 BBT1986616.1.2.3.0],Conns=[delta wye],kvs=[13.8 0.22],kvas=[45.000000000 45.000000000],Taps=[1,1.000000000],%loadloss=1.522000000,%noloadloss=0.377777000
new transformer.522258 Phases=3,Windings=2,Buses=[BMT172667941.1.2.3 BBT1986665.1.2.3.0],Conns=[delta wye],kvs=[13.8 0.22],kvas=[100.000000000 100.000000000],Taps=[1,1.000000000],%loadloss=1.218000000,%noloadloss=0.335000000
new transformer.522265 Phases=3,Windings=2,Buses=[BMT108010275.1.2.3 BBT1986714.1.2.3.0],Conns=[delta wye],kvs=[13.8 0.22],kvas=[45.000000000 45.000000000],Taps=[1,1.000000000],%loadloss=1.522000000,%noloadloss=0.377777000
new transformer.522272 Phases=1,Windings=3,Buses=[BMT158367475.1 BBT1986784.1.0 BBT1986784.0.2],Conns=[wye wye wye],kvs=[7.967 0.12 0.12],kvas=[15.000000000 15.000000000 15.000000000],Taps=[1,1.000000000,1.000000000],%loadloss=1.600000000,%noloadloss=0.400000000
new transformer.522279 Phases=3,Windings=2,Buses=[BMT161029629.1.2.3 BBT1986847.1.2.3.0],Conns=[delta wye],kvs=[13.8 0.22],kvas=[45.000000000 45.000000000],Taps=[1,1.000000000],%loadloss=1.522000000,%noloadloss=0.377777000
new transformer.522293 Phases=3,Windings=2,Buses=[BMT123691339.1.2.3 BBT1987001.1.2.3.0],Conns=[delta wye],kvs=[13.8 0.22],kvas=[45.000000000 45.000000000],Taps=[1,1.000000000],%loadloss=1.522000000,%noloadloss=0.377777000
new transformer.522300 Phases=3,Windings=2,Buses=[BMT100949487.1.2.3 BBT1987015.1.2.3.0],Conns=[delta wye],kvs=[13.8 0.22],kvas=[30.000000000 30.000000000],Taps=[1,1.000000000],%loadloss=1.667000000,%noloadloss=0.433333000
new transformer.522307 Phases=3,Windings=2,Buses=[BMT132317166.1.2.3 BBT1987211.1.2.3.0],Conns=[delta wye],kvs=[13.8 0.22],kvas=[30.000000000 30.000000000],Taps=[1,1.000000000],%loadloss=1.667000000,%noloadloss=0.433333000
new transformer.522314 Phases=3,Windings=2,Buses=[BMT164585251.1.2.3 BBT1987274.1.2.3.0],Conns=[delta wye],kvs=[13.8 0.22],kvas=[250.000000000 250.000000000],Taps=[1,1.000000000],%loadloss=0.990000000,%noloadloss=0.280000000
new transformer.522321 Phases=3,Windings=2,Buses=[BMT165090240.1.2.3 BBT1987316.1.2.3.0],Conns=[delta wye],kvs=[13.8 0.22],kvas=[75.000000000 75.000000000],Taps=[1,1.000000000],%loadloss=1.340000000,%noloadloss=0.340000000
new transformer.522328 Phases=3,Windings=2,Buses=[BMT157634037.1.2.3 BBT1987400.1.2.3.0],Conns=[delta wye],kvs=[13.8 0.22],kvas=[75.000000000 75.000000000],Taps=[1,1.000000000],%loadloss=1.340000000,%noloadloss=0.340000000
new transformer.522356 Phases=3,Windings=2,Buses=[BMT148811385.1.2.3 BBT1987582.1.2.3.0],Conns=[delta wye],kvs=[13.8 0.22],kvas=[30.000000000 30.000000000],Taps=[1,1.000000000],%loadloss=1.667000000,%noloadloss=0.433333000
new transformer.522363 Phases=3,Windings=2,Buses=[BMT132317152.1.2.3 BBT1987652.1.2.3.0],Conns=[delta wye],kvs=[13.8 0.22],kvas=[75.000000000 75.000000000],Taps=[1,1.000000000],%loadloss=1.340000000,%noloadloss=0.340000000
new transformer.1041539 Phases=3,Windings=2,Buses=[BMT166541096.1.2.3 BBT7058732.1.2.3.0],Conns=[delta wye],kvs=[13.8 0.22],kvas=[75.000000000 75.000000000],Taps=[1,1.000000000],%loadloss=1.340000000,%noloadloss=0.340000000
new transformer.1041819 Phases=3,Windings=2,Buses=[BMT100952427.1.2.3 BBT7070394.1.2.3.0],Conns=[delta wye],kvs=[13.8 0.22],kvas=[100.000000000 100.000000000],Taps=[1,1.000000000],%loadloss=1.218000000,%noloadloss=0.335000000
new transformer.1353711 Phases=3,Windings=2,Buses=[BMT118364444.1.2.3 BBT118364458.1.2.3.0],Conns=[delta wye],kvs=[13.8 0.22],kvas=[45.000000000 45.000000000],Taps=[1,1.000000000],%loadloss=1.522000000,%noloadloss=0.377777000
new transformer.1377994 Phases=3,Windings=2,Buses=[BMT171145704.1.2.3 BBT136403787.1.2.3.0],Conns=[delta wye],kvs=[13.8 0.22],kvas=[45.000000000 45.000000000],Taps=[1,1.000000000],%loadloss=1.522000000,%noloadloss=0.377777000
new transformer.1378183 Phases=3,Windings=2,Buses=[BMT136448909.1.2.3 BBT136448937.1.2.3.0],Conns=[delta wye],kvs=[13.8 0.22],kvas=[150.000000000 150.000000000],Taps=[1,1.000000000],%loadloss=1.127000000,%noloadloss=0.280000000
new transformer.1380115 Phases=3,Windings=2,Buses=[BMT159855009.1.2.3 BBT136970122.1.2.3.0],Conns=[delta wye],kvs=[13.8 0.22],kvas=[75.000000000 75.000000000],Taps=[1,1.000000000],%loadloss=1.340000000,%noloadloss=0.340000000
new transformer.1401647 Phases=3,Windings=2,Buses=[BMT150868867.1.2.3 BBT150867082.1.2.3.0],Conns=[delta wye],kvs=[13.8 0.22],kvas=[150.000000000 150.000000000],Taps=[1,1.000000000],%loadloss=1.127000000,%noloadloss=0.280000000
new transformer.1439691 Phases=3,Windings=2,Buses=[BMT159109919.1.2.3 BBT159109875.1.2.3.0],Conns=[delta wye],kvs=[13.8 0.22],kvas=[75.000000000 75.000000000],Taps=[1,1.000000000],%loadloss=1.340000000,%noloadloss=0.340000000
new transformer.1439975 Phases=3,Windings=2,Buses=[BMT159576008.1.2.3 BBT159171768.1.2.3.0],Conns=[delta wye],kvs=[13.8 0.22],kvas=[75.000000000 75.000000000],Taps=[1,1.000000000],%loadloss=1.340000000,%noloadloss=0.340000000
new transformer.1439985 Phases=3,Windings=2,Buses=[BMT159576007.1.2.3 BBT159173043.1.2.3.0],Conns=[delta wye],kvs=[13.8 0.22],kvas=[75.000000000 75.000000000],Taps=[1,1.000000000],%loadloss=1.340000000,%noloadloss=0.340000000
new transformer.1467400 Phases=3,Windings=2,Buses=[BMT168251412.1.2.3 BBT165987408.1.2.3.0],Conns=[delta wye],kvs=[13.8 0.22],kvas=[75.000000000 75.000000000],Taps=[1,1.000000000],%loadloss=1.340000000,%noloadloss=0.340000000
new transformer.1467745 Phases=3,Windings=2,Buses=[BMT166051784.1.2.3 BBT166049863.1.2.3.0],Conns=[delta wye],kvs=[13.8 0.22],kvas=[45.000000000 45.000000000],Taps=[1,1.000000000],%loadloss=1.522000000,%noloadloss=0.377777000
new transformer.1467746 Phases=3,Windings=2,Buses=[BMT166051783.1.2.3 BBT166049906.1.2.3.0],Conns=[delta wye],kvs=[13.8 0.22],kvas=[45.000000000 45.000000000],Taps=[1,1.000000000],%loadloss=1.522000000,%noloadloss=0.377777000
new transformer.1468000 Phases=3,Windings=2,Buses=[BMT168917364.1.2.3 BBT166094788.1.2.3.0],Conns=[delta wye],kvs=[13.8 0.22],kvas=[75.000000000 75.000000000],Taps=[1,1.000000000],%loadloss=1.340000000,%noloadloss=0.340000000
new transformer.1468008 Phases=3,Windings=2,Buses=[BMT166888705.1.2.3 BBT166095406.1.2.3.0],Conns=[delta wye],kvs=[13.8 0.22],kvas=[75.000000000 75.000000000],Taps=[1,1.000000000],%loadloss=1.340000000,%noloadloss=0.340000000
new transformer.1478733 Phases=3,Windings=2,Buses=[BMT167917644.1.2.3 BBT167901035.1.2.3.0],Conns=[delta wye],kvs=[13.8 0.22],kvas=[75.000000000 75.000000000],Taps=[1,1.000000000],%loadloss=1.340000000,%noloadloss=0.340000000
new transformer.1484322 Phases=3,Windings=2,Buses=[BMT168918020.1.2.3 BBT168917115.1.2.3.0],Conns=[delta wye],kvs=[13.8 0.22],kvas=[150.000000000 150.000000000],Taps=[1,1.000000000],%loadloss=1.127000000,%noloadloss=0.280000000
new transformer.1487949 Phases=3,Windings=2,Buses=[BMT172300056.1.2.3 BBT169519162.1.2.3.0],Conns=[delta wye],kvs=[13.8 0.22],kvas=[45.000000000 45.000000000],Taps=[1,1.000000000],%loadloss=1.522000000,%noloadloss=0.377777000
...