2024_89_CemigReconfigurationCases/1_3_EstudoCasos/IIGD210/IIGD210Ramais.dss
new line.RML10033711 bus1=BBT1971314.3.0,bus2=RML1060033711.3.0,Phases=1,Linecode=CABBTG01_4_1,Length=0.017,Units=km
new line.RML10033697 bus1=BBT2005852.3.0,bus2=RML1060033697.3.0,Phases=1,Linecode=CABBTG01_4_1,Length=0.017,Units=km
new line.RML10033715 bus1=BBT3529080.1.2.3.0,bus2=RML1060033715.1.2.3.0,Phases=3,Linecode=CABBTG06_4_3,Length=0.017,Units=km
new line.RML10034077 bus1=BBT165261971.1.2.3.0,bus2=RML1060034077.1.2.3.0,Phases=3,Linecode=CABBTG06_4_3,Length=0.017,Units=km
new line.RML10034084 bus1=BBT1989003.1.2.3.0,bus2=RML1060034084.1.2.3.0,Phases=3,Linecode=CABBTG12_4_3,Length=0.017,Units=km
new line.RML10034523 bus1=BBT3116227.1.2.0,bus2=RML1060034523.1.2.0,Phases=2,Linecode=CABBTG05_4_2,Length=0.017,Units=km
new line.RML10034532 bus1=BBT2343742.1.2.3.0,bus2=RML1060034532.1.2.3.0,Phases=3,Linecode=CABBTG06_4_3,Length=0.017,Units=km
new line.RML10034567 bus1=BBT1979469.1.2.0,bus2=RML1060034567.1.2.0,Phases=2,Linecode=CABBTG05_4_2,Length=0.017,Units=km
new line.RML10034572 bus1=BBT1974912.1.2.0,bus2=RML1060034572.1.2.0,Phases=2,Linecode=CABBTG05_4_2,Length=0.017,Units=km
new line.RML10035418 bus1=BBT1997676.1.2.0,bus2=RML1060035418.1.2.0,Phases=2,Linecode=CABBTG05_4_2,Length=0.017,Units=km
new line.RML10035426 bus1=BBT1983060.1.2.3.0,bus2=RML1060035426.1.2.3.0,Phases=3,Linecode=CABBTG06_4_3,Length=0.017,Units=km
new line.RML10035428 bus1=BBT1974758.1.2.3.0,bus2=RML1060035428.1.2.3.0,Phases=3,Linecode=CABBTG06_4_3,Length=0.017,Units=km
new line.RML10035612 bus1=BBT3364510.1.0,bus2=RML1060035612.1.0,Phases=1,Linecode=CABBTG01_4_1,Length=0.017,Units=km
new line.RML10036051 bus1=BBT1979756.1.2.3.0,bus2=RML1060036051.1.2.3.0,Phases=3,Linecode=CABBTG06_4_3,Length=0.017,Units=km
new line.RML10036084 bus1=BBT1979756.1.2.0,bus2=RML1060036084.1.2.0,Phases=2,Linecode=CABBTG05_4_2,Length=0.017,Units=km
new line.RML10036087 bus1=BBT2021357.1.0,bus2=RML1060036087.1.0,Phases=1,Linecode=CABBTG01_4_1,Length=0.017,Units=km
new line.RML10036813 bus1=BBT1988205.1.2.3.0,bus2=RML1060036813.1.2.3.0,Phases=3,Linecode=CABBTG06_4_3,Length=0.017,Units=km
new line.RML10036880 bus1=BBT43121906.1.2.0,bus2=RML1060036880.1.2.0,Phases=2,Linecode=CABBTG05_4_2,Length=0.017,Units=km
new line.RML10036967 bus1=BBT1978426.1.2.0,bus2=RML1060036967.1.2.0,Phases=2,Linecode=CABBTG05_4_2,Length=0.017,Units=km
new line.RML10038345 bus1=BBT2047390.1.2.3.0,bus2=RML1060038345.1.2.3.0,Phases=3,Linecode=CABBTG08_4_3,Length=0.017,Units=km
new line.RML10038346 bus1=BBT149065526.1.2.3.0,bus2=RML1060038346.1.2.3.0,Phases=3,Linecode=CABBT815_4_3,Length=0.017,Units=km
new line.RML10038361 bus1=BBT2254023.2.3.0,bus2=RML1060038361.2.3.0,Phases=2,Linecode=CABBT811_4_2,Length=0.017,Units=km
new line.RML10038735 bus1=BBT1986700.1.2.3.0,bus2=RML1060038735.1.2.3.0,Phases=3,Linecode=CABBTG09_4_3,Length=0.029000000,Units=km
new line.RML10040015 bus1=BBT2052199.1.2.3.0,bus2=RML1060040015.1.2.3.0,Phases=3,Linecode=CABBTG06_4_3,Length=0.017,Units=km
new line.RML10040444 bus1=BBT1974177.3.0,bus2=RML1060040444.3.0,Phases=1,Linecode=CABBTG01_4_1,Length=0.017,Units=km
new line.RML10040487 bus1=BBT1974275.1.0,bus2=RML1060040487.1.0,Phases=1,Linecode=CABBTG02_4_1,Length=0.017,Units=km
new line.RML10041020 bus1=BBT2154518.1.2.3.0,bus2=RML1060041020.1.2.3.0,Phases=3,Linecode=CABBTG12_4_3,Length=0.017,Units=km
new line.RML10041268 bus1=BBT2036736.1.2.3.0,bus2=RML1060041268.1.2.3.0,Phases=3,Linecode=CABBTG08_4_3,Length=0.017,Units=km
new line.RML10041553 bus1=BBT1977103.1.2.3.0,bus2=RML1060041553.1.2.3.0,Phases=3,Linecode=CABBTG06_4_3,Length=0.017,Units=km
new line.RML10090390 bus1=BBT2013937.1.2.3.0,bus2=RML1060090390.1.2.3.0,Phases=3,Linecode=CABBTG06_4_3,Length=0.017,Units=km
new line.RML10090487 bus1=BBT4834762.1.0,bus2=RML1060090487.1.0,Phases=1,Linecode=CABBTG02_4_1,Length=0.013000000,Units=km
new line.RML10090585 bus1=BBT1971608.1.2.0,bus2=RML1060090585.1.2.0,Phases=2,Linecode=CABBTG05_4_2,Length=0.017,Units=km
new line.RML10090863 bus1=BBT149261639.1.2.3.0,bus2=RML1060090863.1.2.3.0,Phases=3,Linecode=CABBTG07_4_3,Length=0.017,Units=km
new line.RML10091377 bus1=BBT1978447.1.0,bus2=RML1060091377.1.0,Phases=1,Linecode=CABBTG02_4_1,Length=0.006000000,Units=km
new line.RML10091380 bus1=BBT3649977.1.0,bus2=RML1060091380.1.0,Phases=1,Linecode=CABBTG02_4_1,Length=0.012000000,Units=km
new line.RML10091409 bus1=BBT1969550.1.2.0,bus2=RML1060091409.1.2.0,Phases=2,Linecode=CABBTG05_4_2,Length=0.014000000,Units=km
new line.RML10091723 bus1=BBT1989269.1.2.3.0,bus2=RML1060091723.1.2.3.0,Phases=3,Linecode=CABBTG06_4_3,Length=0.017,Units=km
new line.RML10091744 bus1=BBT2052353.1.2.3.0,bus2=RML1060091744.1.2.3.0,Phases=3,Linecode=CABBTG06_4_3,Length=0.017,Units=km
new line.RML10091784 bus1=BBT1987897.1.2.3.0,bus2=RML1060091784.1.2.3.0,Phases=3,Linecode=CABBTG06_4_3,Length=0.029000000,Units=km
new line.RML10092019 bus1=BBT1994925.1.2.3.0,bus2=RML1060092019.1.2.3.0,Phases=3,Linecode=CABBTG06_4_3,Length=0.017,Units=km
new line.RML10092312 bus1=BBT1969557.1.2.0,bus2=RML1060092312.1.2.0,Phases=2,Linecode=CABBTG05_4_2,Length=0.017,Units=km
new line.RML10092404 bus1=BBT3454103.1.2.0,bus2=RML1060092404.1.2.0,Phases=2,Linecode=CABBTG04_4_2,Length=0.017,Units=km
new line.RML10092504 bus1=BBT1999167.1.2.0,bus2=RML1060092504.1.2.0,Phases=2,Linecode=CABBTG04_4_2,Length=0.017,Units=km
new line.RML10092595 bus1=BBT3659714.1.2.0,bus2=RML1060092595.1.2.0,Phases=2,Linecode=CABBTG04_4_2,Length=0.017,Units=km
new line.RML10092650 bus1=BBT172447045.1.2.3.0,bus2=RML1060092650.1.2.3.0,Phases=3,Linecode=CABBTG07_4_3,Length=0.017,Units=km
new line.RML10092665 bus1=BBT2005887.1.2.3.0,bus2=RML1060092665.1.2.3.0,Phases=3,Linecode=CABBTG06_4_3,Length=0.017,Units=km
new line.RML10092695 bus1=BBT1977383.1.2.3.0,bus2=RML1060092695.1.2.3.0,Phases=3,Linecode=CABBTG06_4_3,Length=0.017,Units=km
new line.RML10092779 bus1=BBT1987953.1.2.3.0,bus2=RML1060092779.1.2.3.0,Phases=3,Linecode=CABBTG11_4_3,Length=0.017,Units=km
new line.RML10092828 bus1=BBT1968108.1.2.3.0,bus2=RML1060092828.1.2.3.0,Phases=3,Linecode=CABBTG06_4_3,Length=0.017,Units=km
new line.RML10092832 bus1=BBT2155785.1.2.0,bus2=RML1060092832.1.2.0,Phases=2,Linecode=CABBTG04_4_2,Length=0.017,Units=km
new line.RML10092837 bus1=BBT1970642.1.2.0,bus2=RML1060092837.1.2.0,Phases=2,Linecode=CABBTG04_4_2,Length=0.017,Units=km
new line.RML10092911 bus1=BBT2016898.1.2.3.0,bus2=RML1060092911.1.2.3.0,Phases=3,Linecode=CABBTG07_4_3,Length=0.017,Units=km
new line.RML10092949 bus1=BBT2261562.1.2.3.0,bus2=RML1060092949.1.2.3.0,Phases=3,Linecode=CABBTG06_4_3,Length=0.017,Units=km
new line.RML10093393 bus1=BBT2343672.1.2.3.0,bus2=RML1060093393.1.2.3.0,Phases=3,Linecode=CABBTG06_4_3,Length=0.017,Units=km
new line.RML10093582 bus1=BBT2016457.1.2.0,bus2=RML1060093582.1.2.0,Phases=2,Linecode=CABBTG05_4_2,Length=0.017,Units=km
new line.RML10093651 bus1=BBT2032809.1.2.0,bus2=RML1060093651.1.2.0,Phases=2,Linecode=CABBTG05_4_2,Length=0.017,Units=km
new line.RML10001510 bus1=BBT2158172.1.2.3.0,bus2=RML1060001510.1.2.3.0,Phases=3,Linecode=CABBTG06_4_3,Length=0.017,Units=km
new line.RML10004373 bus1=BBT1981898.1.2.0,bus2=RML1060004373.1.2.0,Phases=2,Linecode=CABBTG05_4_2,Length=0.017,Units=km
new line.RML10004401 bus1=BBT1981898.2.3.0,bus2=RML1060004401.2.3.0,Phases=2,Linecode=CABBTG05_4_2,Length=0.017,Units=km
new line.RML10004478 bus1=BBT6752657.1.0,bus2=RML1060004478.1.0,Phases=1,Linecode=CABBTG01_4_1,Length=0.017,Units=km
new line.RML10083802 bus1=BBT2013692.1.2.3.0,bus2=RML1060083802.1.2.3.0,Phases=3,Linecode=CABBTG06_4_3,Length=0.017,Units=km
new line.RML10083868 bus1=BBT2026341.1.2.0,bus2=RML1060083868.1.2.0,Phases=2,Linecode=CABBTG05_4_2,Length=0.017,Units=km
new line.RML10084058 bus1=BBT2343651.1.2.0,bus2=RML1060084058.1.2.0,Phases=2,Linecode=CABBTG05_4_2,Length=0.010000000,Units=km
new line.RML10085648 bus1=BBT1979140.3.0,bus2=RML1060085648.3.0,Phases=1,Linecode=CABBTG02_4_1,Length=0.010000000,Units=km
new line.RML10085710 bus1=BBT2001988.1.2.0,bus2=RML1060085710.1.2.0,Phases=2,Linecode=CABBTG05_4_2,Length=0.016000000,Units=km
new line.RML10086101 bus1=BBT2012691.1.2.0,bus2=RML1060086101.1.2.0,Phases=2,Linecode=CABBTG13_4_2,Length=0.018000000,Units=km
new line.RML10086155 bus1=BBT3476475.1.0,bus2=RML1060086155.1.0,Phases=1,Linecode=CABBTG02_4_1,Length=0.012000000,Units=km
new line.RML10086230 bus1=BBT1977712.1.2.3.0,bus2=RML1060086230.1.2.3.0,Phases=3,Linecode=CABBTG12_4_3,Length=0.009000000,Units=km
new line.RML10086414 bus1=BBT1995492.1.2.3.0,bus2=RML1060086414.1.2.3.0,Phases=3,Linecode=CABBTG06_4_3,Length=0.014000000,Units=km
new line.RML10086516 bus1=BBT1986749.1.2.0,bus2=RML1060086516.1.2.0,Phases=2,Linecode=CABBTG05_4_2,Length=0.014000000,Units=km
new line.RML10086574 bus1=BBT1982304.1.2.3.0,bus2=RML1060086574.1.2.3.0,Phases=3,Linecode=CABBTG06_4_3,Length=0.015000000,Units=km
new line.RML10086592 bus1=BBT2257859.3.0,bus2=RML1060086592.3.0,Phases=1,Linecode=CABBTG02_4_1,Length=0.020000000,Units=km
new line.RML10086602 bus1=BBT2031857.1.2.0,bus2=RML1060086602.1.2.0,Phases=2,Linecode=CABBTG05_4_2,Length=0.012000000,Units=km
new line.RML10086627 bus1=BBT2018536.1.2.0,bus2=RML1060086627.1.2.0,Phases=2,Linecode=CABBTG05_4_2,Length=0.010000000,Units=km
new line.RML10086669 bus1=BBT2258034.1.2.0,bus2=RML1060086669.1.2.0,Phases=2,Linecode=CABBTG05_4_2,Length=0.017,Units=km
new line.RML10086887 bus1=BBT1974331.1.3.0,bus2=RML1060086887.1.3.0,Phases=2,Linecode=CABBTG05_4_2,Length=0.015000000,Units=km
new line.RML10086901 bus1=BBT1985979.1.3.0,bus2=RML1060086901.1.3.0,Phases=2,Linecode=CABBTG05_4_2,Length=0.014000000,Units=km
new line.RML10086941 bus1=BBT3647835.1.3.0,bus2=RML1060086941.1.3.0,Phases=2,Linecode=CABBTG05_4_2,Length=0.016000000,Units=km
new line.RML10087065 bus1=BBT2261555.1.2.0,bus2=RML1060087065.1.2.0,Phases=2,Linecode=CABBTG05_4_2,Length=0.012000000,Units=km
new line.RML10087133 bus1=BBT3364496.1.2.0,bus2=RML1060087133.1.2.0,Phases=2,Linecode=CABBTG05_4_2,Length=0.020000000,Units=km
new line.RML10087219 bus1=BBT2158081.1.2.3.0,bus2=RML1060087219.1.2.3.0,Phases=3,Linecode=CABBTG06_4_3,Length=0.014000000,Units=km
new line.RML10087227 bus1=BBT1988233.1.2.3.0,bus2=RML1060087227.1.2.3.0,Phases=3,Linecode=CABBTG06_4_3,Length=0.012000000,Units=km
new line.RML10087820 bus1=BBT3013586.1.2.0,bus2=RML1060087820.1.2.0,Phases=2,Linecode=CABBTG05_4_2,Length=0.014000000,Units=km
new line.RML10087879 bus1=BBT2001890.1.2.0,bus2=RML1060087879.1.2.0,Phases=2,Linecode=CABBTG05_4_2,Length=0.014000000,Units=km
new line.RML10087966 bus1=BBT1995268.1.2.3.0,bus2=RML1060087966.1.2.3.0,Phases=3,Linecode=CABBTG06_4_3,Length=0.012000000,Units=km
new line.RML10088067 bus1=BBT2006447.1.2.0,bus2=RML1060088067.1.2.0,Phases=2,Linecode=CABBTG05_4_2,Length=0.014000000,Units=km
new line.RML10088268 bus1=BBT2859439.1.2.0,bus2=RML1060088268.1.2.0,Phases=2,Linecode=CABBTG05_4_2,Length=0.017,Units=km
new line.RML10088327 bus1=BBT1989367.1.2.0,bus2=RML1060088327.1.2.0,Phases=2,Linecode=CABBTG05_4_2,Length=0.013000000,Units=km
new line.RML10088338 bus1=BBT2148029.1.0,bus2=RML1060088338.1.0,Phases=1,Linecode=CABBTG02_4_1,Length=0.012000000,Units=km
new line.RML10088432 bus1=BBT1991551.1.0,bus2=RML1060088432.1.0,Phases=1,Linecode=CABBTG02_4_1,Length=0.012000000,Units=km
new line.RML10088805 bus1=BBT2007672.1.2.0,bus2=RML1060088805.1.2.0,Phases=2,Linecode=CABBTG05_4_2,Length=0.017,Units=km
new line.RML10145574 bus1=BBT1983452.1.0,bus2=RML1060145574.1.0,Phases=1,Linecode=CABBTG02_4_1,Length=0.017,Units=km
new line.RML10145583 bus1=BBT2343784.1.2.0,bus2=RML1060145583.1.2.0,Phases=2,Linecode=CABBTG05_4_2,Length=0.017,Units=km
new line.RML10146368 bus1=BBT2033404.1.0,bus2=RML1060146368.1.0,Phases=1,Linecode=CABBTG02_4_1,Length=0.017,Units=km
new line.RML10146494 bus1=BBT2265510.1.3.0,bus2=RML1060146494.1.3.0,Phases=2,Linecode=CABBTG05_4_2,Length=0.017,Units=km
new line.RML10146684 bus1=BBT2149709.1.0,bus2=RML1060146684.1.0,Phases=1,Linecode=CABBTG02_4_1,Length=0.017,Units=km
new line.RML10196764 bus1=BBT2039095.1.2.0,bus2=RML1060196764.1.2.0,Phases=2,Linecode=CABBTG05_4_2,Length=0.017,Units=km
new line.RML10196767 bus1=BBT2022953.1.2.3.0,bus2=RML1060196767.1.2.3.0,Phases=3,Linecode=CABBTG07_4_3,Length=0.017,Units=km
new line.RML10196784 bus1=BBT148653361.1.2.3.0,bus2=RML1060196784.1.2.3.0,Phases=3,Linecode=CABBTG06_4_3,Length=0.017,Units=km
new line.RML10196844 bus1=BBT1984446.1.2.0,bus2=RML1060196844.1.2.0,Phases=2,Linecode=CABBTG05_4_2,Length=0.017,Units=km
new line.RML10197084 bus1=BBT2029659.1.2.3.0,bus2=RML1060197084.1.2.3.0,Phases=3,Linecode=CABBTG06_4_3,Length=0.017,Units=km
new line.RML10197553 bus1=BBT2257201.1.0,bus2=RML1060197553.1.0,Phases=1,Linecode=CABBTG02_4_1,Length=0.017,Units=km
new line.RML10199518 bus1=BBT2343560.3.0,bus2=RML1060199518.3.0,Phases=1,Linecode=CABBTG02_4_1,Length=0.017,Units=km
new line.RML10199612 bus1=BBT3649984.1.2.0,bus2=RML1060199612.1.2.0,Phases=2,Linecode=CABBT801_4_2,Length=0.017,Units=km
new line.RML10199622 bus1=BBT1972273.1.2.3.0,bus2=RML1060199622.1.2.3.0,Phases=3,Linecode=CABBTG07_4_3,Length=0.017,Units=km
new line.RML10199647 bus1=BBT2037100.2.0,bus2=RML1060199647.2.0,Phases=1,Linecode=CABBTG02_4_1,Length=0.017,Units=km
new line.RML10199653 bus1=BBT1977635.1.2.0,bus2=RML1060199653.1.2.0,Phases=2,Linecode=CABBTG05_4_2,Length=0.017,Units=km
new line.RML10199661 bus1=BBT1985608.1.2.0,bus2=RML1060199661.1.2.0,Phases=2,Linecode=CABBTG05_4_2,Length=0.017,Units=km
new line.RML10200347 bus1=BBT2157465.1.0,bus2=RML1060200347.1.0,Phases=1,Linecode=CABBTG02_4_1,Length=0.017,Units=km
new line.RML10200817 bus1=BBT2267512.1.2.0,bus2=RML1060200817.1.2.0,Phases=2,Linecode=CABBTG05_4_2,Length=0.017,Units=km
new line.RML10201135 bus1=BBT2343777.1.2.0,bus2=RML1060201135.1.2.0,Phases=2,Linecode=CABBTG05_4_2,Length=0.017,Units=km
new line.RML10201145 bus1=BBT2332052.1.2.0,bus2=RML1060201145.1.2.0,Phases=2,Linecode=CABBTG05_4_2,Length=0.017,Units=km
new line.RML10058093 bus1=BBT2015204.1.2.0,bus2=RML1060058093.1.2.0,Phases=2,Linecode=CABBTG05_4_2,Length=0.017,Units=km
new line.RML10058105 bus1=BBT3653491.1.2.0,bus2=RML1060058105.1.2.0,Phases=2,Linecode=CABBTG05_4_2,Length=0.017,Units=km
new line.RML10062516 bus1=BBT2020307.1.2.0,bus2=RML1060062516.1.2.0,Phases=2,Linecode=CABBTG04_4_2,Length=0.017,Units=km
new line.RML10062530 bus1=BBT2157283.1.2.0,bus2=RML1060062530.1.2.0,Phases=2,Linecode=CABBTG05_4_2,Length=0.017,Units=km
new line.RML10062567 bus1=BBT2343868.2.0,bus2=RML1060062567.2.0,Phases=1,Linecode=CABBTG02_4_1,Length=0.017,Units=km
new line.RML10062570 bus1=BBT1974219.2.0,bus2=RML1060062570.2.0,Phases=1,Linecode=CABBTG02_4_1,Length=0.017,Units=km
new line.RML10062771 bus1=BBT2148645.2.0,bus2=RML1060062771.2.0,Phases=1,Linecode=CABBTG02_4_1,Length=0.017,Units=km
new line.RML10063148 bus1=BBT1989591.1.2.3.0,bus2=RML1060063148.1.2.3.0,Phases=3,Linecode=CABBTG06_4_3,Length=0.017,Units=km
new line.RML10064300 bus1=BBT1987897.1.2.3.0,bus2=RML1060064300.1.2.3.0,Phases=3,Linecode=CABBTG07_4_3,Length=0.029000000,Units=km
new line.RML10065116 bus1=BBT1979581.1.2.0,bus2=RML1060065116.1.2.0,Phases=2,Linecode=CABBTG05_4_2,Length=0.017,Units=km
new line.RML10065156 bus1=BBT7308072.1.2.3.0,bus2=RML1060065156.1.2.3.0,Phases=3,Linecode=CABBTG06_4_3,Length=0.017,Units=km
new line.RML10065163 bus1=BBT2023632.1.2.3.0,bus2=RML1060065163.1.2.3.0,Phases=3,Linecode=CABBTG06_4_3,Length=0.017,Units=km
new line.RML10147755 bus1=BBT1998635.1.2.0,bus2=RML1060147755.1.2.0,Phases=2,Linecode=CABBTG05_4_2,Length=0.017,Units=km
new line.RML10148167 bus1=BBT1995044.3.0,bus2=RML1060148167.3.0,Phases=1,Linecode=CABBTG02_4_1,Length=0.017,Units=km
new line.RML10148173 bus1=BBT1976123.2.3.0,bus2=RML1060148173.2.3.0,Phases=2,Linecode=CABBTG05_4_2,Length=0.017,Units=km
new line.RML10148180 bus1=BBT2012194.1.2.0,bus2=RML1060148180.1.2.0,Phases=2,Linecode=CABBTG05_4_2,Length=0.017,Units=km
new line.RML10148265 bus1=BBT1985748.1.0,bus2=RML1060148265.1.0,Phases=1,Linecode=CABBTG02_4_1,Length=0.017,Units=km
new line.RML10148592 bus1=BBT1979406.1.2.3.0,bus2=RML1060148592.1.2.3.0,Phases=3,Linecode=CABBTG11_4_3,Length=0.017,Units=km
new line.RML10148607 bus1=BBT3650173.1.0,bus2=RML1060148607.1.0,Phases=1,Linecode=CABBTG02_4_1,Length=0.017,Units=km
new line.RML10148620 bus1=BBT2027160.1.2.3.0,bus2=RML1060148620.1.2.3.0,Phases=3,Linecode=CABBTG06_4_3,Length=0.017,Units=km
new line.RML10148686 bus1=BBT1975052.2.3.0,bus2=RML1060148686.2.3.0,Phases=2,Linecode=CABBTG05_4_2,Length=0.017,Units=km
new line.RML10148697 bus1=BBT2260351.1.2.3.0,bus2=RML1060148697.1.2.3.0,Phases=3,Linecode=CABBTG11_4_3,Length=0.017,Units=km
new line.RML10148972 bus1=BBT2055657.1.2.3.0,bus2=RML1060148972.1.2.3.0,Phases=3,Linecode=CABBTG06_4_3,Length=0.017,Units=km
new line.RML10149004 bus1=BBT2155708.1.2.3.0,bus2=RML1060149004.1.2.3.0,Phases=3,Linecode=CABBTG06_4_3,Length=0.017,Units=km
new line.RML10150331 bus1=BBT2343749.2.0,bus2=RML1060150331.2.0,Phases=1,Linecode=CABBTG02_4_1,Length=0.017,Units=km
new line.RML10151761 bus1=BBT2156583.1.2.0,bus2=RML1060151761.1.2.0,Phases=2,Linecode=CABBTG04_4_2,Length=0.017,Units=km
new line.RML10151869 bus1=BBT2266000.1.2.3.0,bus2=RML1060151869.1.2.3.0,Phases=3,Linecode=CABBTG06_4_3,Length=0.020000000,Units=km
new line.RML10151871 bus1=BBT1987820.1.2.3.0,bus2=RML1060151871.1.2.3.0,Phases=3,Linecode=CABBTG06_4_3,Length=0.017,Units=km
new line.RML10151912 bus1=BBT2345457.1.2.0,bus2=RML1060151912.1.2.0,Phases=2,Linecode=CABBTG05_4_2,Length=0.017,Units=km
new line.RML10153247 bus1=BBT2152005.1.2.0,bus2=RML1060153247.1.2.0,Phases=2,Linecode=CABBTG04_4_2,Length=0.017,Units=km
new line.RML10154508 bus1=BBT2155799.2.3.0,bus2=RML1060154508.2.3.0,Phases=2,Linecode=CABBTG05_4_2,Length=0.017,Units=km
new line.RML10219773 bus1=BBT2343910.1.0,bus2=RML1060219773.1.0,Phases=1,Linecode=CABBTG02_4_1,Length=0.017,Units=km
new line.RML10219803 bus1=BBT2033432.1.2.3.0,bus2=RML1060219803.1.2.3.0,Phases=3,Linecode=CABBTG06_4_3,Length=0.017,Units=km
new line.RML10219979 bus1=BBT2045423.1.2.0,bus2=RML1060219979.1.2.0,Phases=2,Linecode=CABBTG05_4_2,Length=0.017,Units=km
new line.RML10219999 bus1=BBT2343847.2.0,bus2=RML1060219999.2.0,Phases=1,Linecode=CABBTG02_4_1,Length=0.017,Units=km
new line.RML10220012 bus1=BBT1983011.1.2.0,bus2=RML1060220012.1.2.0,Phases=2,Linecode=CABBTG05_4_2,Length=0.017,Units=km
new line.RML10220023 bus1=BBT1984649.1.2.3.0,bus2=RML1060220023.1.2.3.0,Phases=3,Linecode=CABBTG06_4_3,Length=0.017,Units=km
new line.RML10220033 bus1=BBT7209435.1.2.0,bus2=RML1060220033.1.2.0,Phases=2,Linecode=CABBT801_4_2,Length=0.017,Units=km
new line.RML10220081 bus1=BBT1990200.1.2.3.0,bus2=RML1060220081.1.2.3.0,Phases=3,Linecode=CABBTG08_4_3,Length=0.017,Units=km
new line.RML10220091 bus1=BBT2257943.1.2.0,bus2=RML1060220091.1.2.0,Phases=2,Linecode=CABBTG05_4_2,Length=0.017,Units=km
new line.RML10220326 bus1=BBT2156401.1.2.0,bus2=RML1060220326.1.2.0,Phases=2,Linecode=CABBTG05_4_2,Length=0.017,Units=km
new line.RML10221797 bus1=BBT1993959.1.3.0,bus2=RML1060221797.1.3.0,Phases=2,Linecode=CABBTG05_4_2,Length=0.017,Units=km
new line.RML10284489 bus1=BBT1984698.1.2.3.0,bus2=RML1060284489.1.2.3.0,Phases=3,Linecode=CABBTG06_4_3,Length=0.017,Units=km
new line.RML10285174 bus1=BBT1988464.1.3.0,bus2=RML1060285174.1.3.0,Phases=2,Linecode=CABBTG05_4_2,Length=0.017,Units=km
new line.RML10285804 bus1=BBT2328090.1.2.3.0,bus2=RML1060285804.1.2.3.0,Phases=3,Linecode=CABBTG06_4_3,Length=0.017,Units=km
new line.RML10285895 bus1=BBT4658215.1.2.0,bus2=RML1060285895.1.2.0,Phases=2,Linecode=CABBTG05_4_2,Length=0.017,Units=km
new line.RML10285961 bus1=BBT2047474.2.3.0,bus2=RML1060285961.2.3.0,Phases=2,Linecode=CABBTG05_4_2,Length=0.017,Units=km
new line.RML10286043 bus1=BBT4413313.2.0,bus2=RML1060286043.2.0,Phases=1,Linecode=CABBTG02_4_1,Length=0.017,Units=km
new line.RML10286339 bus1=BBT1997312.2.0,bus2=RML1060286339.2.0,Phases=1,Linecode=CABBTG02_4_1,Length=0.017,Units=km
new line.RML10286522 bus1=BBT2258314.1.2.0,bus2=RML1060286522.1.2.0,Phases=2,Linecode=CABBTG05_4_2,Length=0.017,Units=km
new line.RML10286563 bus1=BBT2029568.1.2.0,bus2=RML1060286563.1.2.0,Phases=2,Linecode=CABBTG05_4_2,Length=0.017,Units=km
new line.RML10286569 bus1=BBT2038185.1.0,bus2=RML1060286569.1.0,Phases=1,Linecode=CABBTG02_4_1,Length=0.017,Units=km
new line.RML10286960 bus1=BBT1974093.1.3.0,bus2=RML1060286960.1.3.0,Phases=2,Linecode=CABBTG05_4_2,Length=0.017,Units=km
new line.RML10287097 bus1=BBT2254037.2.0,bus2=RML1060287097.2.0,Phases=1,Linecode=CABBTG02_4_1,Length=0.017,Units=km
new line.RML10287868 bus1=BBT2257936.1.0,bus2=RML1060287868.1.0,Phases=1,Linecode=CABBTG02_4_1,Length=0.017,Units=km
new line.RML10291793 bus1=BBT3364587.1.2.0,bus2=RML1060291793.1.2.0,Phases=2,Linecode=CABBTG05_4_2,Length=0.017,Units=km
new line.RML10051340 bus1=BBT1977656.1.0,bus2=RML1060051340.1.0,Phases=1,Linecode=CABBTG02_4_1,Length=0.017,Units=km
new line.RML10051557 bus1=BBT1976396.1.0,bus2=RML1060051557.1.0,Phases=1,Linecode=CABBTG01_4_1,Length=0.017,Units=km
new line.RML10051885 bus1=BBT1982654.1.2.3.0,bus2=RML1060051885.1.2.3.0,Phases=3,Linecode=CABBTG07_4_3,Length=0.017,Units=km
new line.RML10054051 bus1=BBT1990235.1.2.3.0,bus2=RML1060054051.1.2.3.0,Phases=3,Linecode=CABBTG06_4_3,Length=0.017,Units=km
new line.RML10054056 bus1=BBT1968717.1.2.3.0,bus2=RML1060054056.1.2.3.0,Phases=3,Linecode=CABBTG06_4_3,Length=0.017,Units=km
new line.RML10054145 bus1=BBT2009989.2.3.0,bus2=RML1060054145.2.3.0,Phases=2,Linecode=CABBTG05_4_2,Length=0.017,Units=km
new line.RML10054156 bus1=BBT1976459.1.2.0,bus2=RML1060054156.1.2.0,Phases=2,Linecode=CABBTG05_4_2,Length=0.017,Units=km
new line.RML10054592 bus1=BBT111537925.1.0,bus2=RML1060054592.1.0,Phases=1,Linecode=CABBTG01_4_1,Length=0.017,Units=km
new line.RML10055351 bus1=BBT2152264.2.0,bus2=RML1060055351.2.0,Phases=1,Linecode=CABBTG01_4_1,Length=0.017,Units=km
new line.RML10055977 bus1=BBT3659714.1.2.0,bus2=RML1060055977.1.2.0,Phases=2,Linecode=CABBTG04_4_2,Length=0.017,Units=km
new line.RML10056011 bus1=BBT3518510.1.2.0,bus2=RML1060056011.1.2.0,Phases=2,Linecode=CABBTG05_4_2,Length=0.017,Units=km
new line.RML10056032 bus1=BBT2058324.2.3.0,bus2=RML1060056032.2.3.0,Phases=2,Linecode=CABBTG05_4_2,Length=0.017,Units=km
new line.RML10056052 bus1=BBT2002177.2.0,bus2=RML1060056052.2.0,Phases=1,Linecode=CABBTG02_4_1,Length=0.017,Units=km
new line.RML10057592 bus1=BBT1976235.1.2.3.0,bus2=RML1060057592.1.2.3.0,Phases=3,Linecode=CABBTG07_4_3,Length=0.017,Units=km
new line.RML10187389 bus1=BBT156566579.1.2.3.0,bus2=RML1060187389.1.2.3.0,Phases=3,Linecode=CABBTG06_4_3,Length=0.017,Units=km
new line.RML10187528 bus1=BBT1979861.1.0,bus2=RML1060187528.1.0,Phases=1,Linecode=CABBTG02_4_1,Length=0.017,Units=km
new line.RML10187746 bus1=BBT2154567.1.2.0,bus2=RML1060187746.1.2.0,Phases=2,Linecode=CABBTG05_4_2,Length=0.017,Units=km
new line.RML10187761 bus1=BBT2036162.1.2.0,bus2=RML1060187761.1.2.0,Phases=2,Linecode=CABBTG05_4_2,Length=0.017,Units=km
new line.RML10188602 bus1=BBT1971174.2.0,bus2=RML1060188602.2.0,Phases=1,Linecode=CABBTG02_4_1,Length=0.017,Units=km
new line.RML10188620 bus1=BBT1985272.1.2.3.0,bus2=RML1060188620.1.2.3.0,Phases=3,Linecode=CABBTG07_4_3,Length=0.017,Units=km
new line.RML10189640 bus1=BBT1992930.1.2.0,bus2=RML1060189640.1.2.0,Phases=2,Linecode=CABBTG05_4_2,Length=0.017,Units=km
new line.RML10190489 bus1=BBT2149464.3.0,bus2=RML1060190489.3.0,Phases=1,Linecode=CABBTG02_4_1,Length=0.017,Units=km
new line.RML10190554 bus1=BBT2155309.1.2.3.0,bus2=RML1060190554.1.2.3.0,Phases=3,Linecode=CABBTG11_4_3,Length=0.017,Units=km
new line.RML10190801 bus1=BBT3364468.1.2.0,bus2=RML1060190801.1.2.0,Phases=2,Linecode=CABBTG05_4_2,Length=0.017,Units=km
new line.RML10191546 bus1=BBT2257831.2.0,bus2=RML1060191546.2.0,Phases=1,Linecode=CABBTG01_4_1,Length=0.017,Units=km
new line.RML10191718 bus1=BBT2000203.1.2.0,bus2=RML1060191718.1.2.0,Phases=2,Linecode=CABBTG05_4_2,Length=0.017,Units=km
new line.RML10191876 bus1=BBT2032431.1.2.0,bus2=RML1060191876.1.2.0,Phases=2,Linecode=CABBTG05_4_2,Length=0.017,Units=km
new line.RML10191896 bus1=BBT1976088.2.0,bus2=RML1060191896.2.0,Phases=1,Linecode=CABBTG02_4_1,Length=0.017,Units=km
...